<routes>
    <vType id="normal" accel="2.6" decel="4.5" sigma="0.5" length="5" maxSpeed="33.33" guiShape="passenger"/>
    <vType id="autonomous" accel="2.6" decel="4.5" sigma="0.0" length="5" maxSpeed="33.33" guiShape="passenger" color="0,255,0" carFollowModel="Krauss" lcStrategic="5.0" lcCooperative="5.0" lcSpeedGain="5.0" lcKeepRight="1.0" />
    <route id="route_0" edges="L0 L3" />
    <route id="route_1" edges="L0 L5" />
    <route id="route_2" edges="L0 L7" />
    <route id="route_3" edges="L2 L1" />
    <route id="route_4" edges="L2 L5" />
    <route id="route_5" edges="L2 L7" />
    <route id="route_6" edges="L4 L1" />
    <route id="route_7" edges="L4 L3" />
    <route id="route_8" edges="L4 L7" />
    <route id="route_9" edges="L6 L1" />
    <route id="route_10" edges="L6 L3" />
    <route id="route_11" edges="L6 L5" />
    <vehicle id="veh_0" type="autonomous" route="route_4" depart="0"/>
    <vehicle id="veh_1" type="normal" route="route_1" depart="6"/>
    <vehicle id="veh_2" type="normal" route="route_8" depart="8"/>
    <vehicle id="veh_3" type="normal" route="route_1" depart="9"/>
    <vehicle id="veh_4" type="normal" route="route_9" depart="19"/>
    <vehicle id="veh_5" type="autonomous" route="route_0" depart="22"/>
    <vehicle id="veh_6" type="normal" route="route_7" depart="25"/>
    <vehicle id="veh_7" type="autonomous" route="route_10" depart="27"/>
    <vehicle id="veh_8" type="autonomous" route="route_0" depart="30"/>
    <vehicle id="veh_9" type="normal" route="route_4" depart="40"/>
    <vehicle id="veh_10" type="normal" route="route_1" depart="42"/>
    <vehicle id="veh_11" type="normal" route="route_8" depart="48"/>
    <vehicle id="veh_12" type="normal" route="route_8" depart="58"/>
    <vehicle id="veh_13" type="normal" route="route_6" depart="67"/>
    <vehicle id="veh_14" type="normal" route="route_4" depart="77"/>
    <vehicle id="veh_15" type="autonomous" route="route_5" depart="84"/>
    <vehicle id="veh_16" type="normal" route="route_4" depart="88"/>
    <vehicle id="veh_17" type="normal" route="route_11" depart="97"/>
    <vehicle id="veh_18" type="normal" route="route_9" depart="102"/>
    <vehicle id="veh_19" type="normal" route="route_2" depart="110"/>
    <vehicle id="veh_20" type="autonomous" route="route_2" depart="111"/>
    <vehicle id="veh_21" type="normal" route="route_3" depart="121"/>
    <vehicle id="veh_22" type="normal" route="route_1" depart="125"/>
    <vehicle id="veh_23" type="normal" route="route_10" depart="127"/>
    <vehicle id="veh_24" type="normal" route="route_5" depart="129"/>
    <vehicle id="veh_25" type="normal" route="route_4" depart="130"/>
    <vehicle id="veh_26" type="normal" route="route_11" depart="133"/>
    <vehicle id="veh_27" type="autonomous" route="route_4" depart="138"/>
    <vehicle id="veh_28" type="normal" route="route_6" depart="146"/>
    <vehicle id="veh_29" type="normal" route="route_9" depart="152"/>
    <vehicle id="veh_30" type="autonomous" route="route_0" depart="161"/>
    <vehicle id="veh_31" type="normal" route="route_9" depart="166"/>
    <vehicle id="veh_32" type="autonomous" route="route_7" depart="168"/>
    <vehicle id="veh_33" type="normal" route="route_2" depart="174"/>
    <vehicle id="veh_34" type="normal" route="route_7" depart="177"/>
    <vehicle id="veh_35" type="normal" route="route_9" depart="181"/>
    <vehicle id="veh_36" type="normal" route="route_1" depart="183"/>
    <vehicle id="veh_37" type="normal" route="route_5" depart="192"/>
    <vehicle id="veh_38" type="normal" route="route_8" depart="199"/>
    <vehicle id="veh_39" type="normal" route="route_6" depart="200"/>
    <vehicle id="veh_40" type="autonomous" route="route_9" depart="207"/>
    <vehicle id="veh_41" type="normal" route="route_2" depart="214"/>
    <vehicle id="veh_42" type="autonomous" route="route_11" depart="215"/>
    <vehicle id="veh_43" type="normal" route="route_11" depart="218"/>
    <vehicle id="veh_44" type="normal" route="route_4" depart="226"/>
    <vehicle id="veh_45" type="normal" route="route_7" depart="236"/>
    <vehicle id="veh_46" type="autonomous" route="route_8" depart="244"/>
    <vehicle id="veh_47" type="autonomous" route="route_7" depart="249"/>
    <vehicle id="veh_48" type="normal" route="route_2" depart="252"/>
    <vehicle id="veh_49" type="normal" route="route_5" depart="261"/>
    <vehicle id="veh_50" type="normal" route="route_0" depart="267"/>
    <vehicle id="veh_51" type="normal" route="route_6" depart="275"/>
    <vehicle id="veh_52" type="normal" route="route_8" depart="285"/>
    <vehicle id="veh_53" type="autonomous" route="route_11" depart="295"/>
    <vehicle id="veh_54" type="normal" route="route_10" depart="297"/>
    <vehicle id="veh_55" type="autonomous" route="route_6" depart="305"/>
    <vehicle id="veh_56" type="normal" route="route_1" depart="308"/>
    <vehicle id="veh_57" type="normal" route="route_5" depart="314"/>
    <vehicle id="veh_58" type="normal" route="route_6" depart="316"/>
    <vehicle id="veh_59" type="autonomous" route="route_4" depart="322"/>
    <vehicle id="veh_60" type="normal" route="route_8" depart="330"/>
    <vehicle id="veh_61" type="normal" route="route_7" depart="334"/>
    <vehicle id="veh_62" type="normal" route="route_11" depart="342"/>
    <vehicle id="veh_63" type="normal" route="route_7" depart="344"/>
    <vehicle id="veh_64" type="autonomous" route="route_6" depart="351"/>
    <vehicle id="veh_65" type="normal" route="route_11" depart="355"/>
    <vehicle id="veh_66" type="normal" route="route_9" depart="359"/>
    <vehicle id="veh_67" type="normal" route="route_2" depart="361"/>
    <vehicle id="veh_68" type="normal" route="route_11" depart="371"/>
    <vehicle id="veh_69" type="autonomous" route="route_10" depart="377"/>
    <vehicle id="veh_70" type="normal" route="route_0" depart="387"/>
    <vehicle id="veh_71" type="normal" route="route_5" depart="389"/>
    <vehicle id="veh_72" type="normal" route="route_2" depart="395"/>
    <vehicle id="veh_73" type="normal" route="route_7" depart="403"/>
    <vehicle id="veh_74" type="normal" route="route_10" depart="413"/>
    <vehicle id="veh_75" type="normal" route="route_5" depart="416"/>
    <vehicle id="veh_76" type="autonomous" route="route_10" depart="422"/>
    <vehicle id="veh_77" type="autonomous" route="route_10" depart="429"/>
    <vehicle id="veh_78" type="normal" route="route_0" depart="436"/>
    <vehicle id="veh_79" type="normal" route="route_7" depart="445"/>
    <vehicle id="veh_80" type="normal" route="route_2" depart="451"/>
    <vehicle id="veh_81" type="normal" route="route_4" depart="456"/>
    <vehicle id="veh_82" type="normal" route="route_3" depart="457"/>
    <vehicle id="veh_83" type="autonomous" route="route_10" depart="461"/>
    <vehicle id="veh_84" type="normal" route="route_10" depart="466"/>
    <vehicle id="veh_85" type="normal" route="route_4" depart="474"/>
    <vehicle id="veh_86" type="normal" route="route_5" depart="483"/>
    <vehicle id="veh_87" type="normal" route="route_8" depart="488"/>
    <vehicle id="veh_88" type="normal" route="route_5" depart="489"/>
    <vehicle id="veh_89" type="autonomous" route="route_3" depart="492"/>
    <vehicle id="veh_90" type="normal" route="route_8" depart="502"/>
    <vehicle id="veh_91" type="normal" route="route_9" depart="503"/>
    <vehicle id="veh_92" type="normal" route="route_1" depart="507"/>
    <vehicle id="veh_93" type="normal" route="route_6" depart="517"/>
    <vehicle id="veh_94" type="autonomous" route="route_8" depart="518"/>
    <vehicle id="veh_95" type="normal" route="route_9" depart="526"/>
    <vehicle id="veh_96" type="normal" route="route_4" depart="528"/>
    <vehicle id="veh_97" type="autonomous" route="route_2" depart="537"/>
    <vehicle id="veh_98" type="normal" route="route_1" depart="538"/>
    <vehicle id="veh_99" type="normal" route="route_7" depart="539"/>
    <vehicle id="veh_100" type="autonomous" route="route_0" depart="549"/>
    <vehicle id="veh_101" type="normal" route="route_10" depart="551"/>
    <vehicle id="veh_102" type="normal" route="route_2" depart="554"/>
    <vehicle id="veh_103" type="normal" route="route_9" depart="563"/>
    <vehicle id="veh_104" type="autonomous" route="route_9" depart="567"/>
    <vehicle id="veh_105" type="normal" route="route_0" depart="570"/>
    <vehicle id="veh_106" type="normal" route="route_3" depart="573"/>
    <vehicle id="veh_107" type="normal" route="route_0" depart="576"/>
    <vehicle id="veh_108" type="normal" route="route_6" depart="586"/>
    <vehicle id="veh_109" type="normal" route="route_2" depart="587"/>
    <vehicle id="veh_110" type="normal" route="route_3" depart="591"/>
    <vehicle id="veh_111" type="normal" route="route_6" depart="601"/>
    <vehicle id="veh_112" type="normal" route="route_0" depart="607"/>
    <vehicle id="veh_113" type="normal" route="route_3" depart="609"/>
    <vehicle id="veh_114" type="normal" route="route_4" depart="611"/>
    <vehicle id="veh_115" type="normal" route="route_3" depart="614"/>
    <vehicle id="veh_116" type="normal" route="route_9" depart="618"/>
    <vehicle id="veh_117" type="normal" route="route_8" depart="625"/>
    <vehicle id="veh_118" type="normal" route="route_6" depart="633"/>
    <vehicle id="veh_119" type="normal" route="route_1" depart="635"/>
    <vehicle id="veh_120" type="normal" route="route_8" depart="644"/>
    <vehicle id="veh_121" type="normal" route="route_0" depart="651"/>
    <vehicle id="veh_122" type="normal" route="route_4" depart="654"/>
    <vehicle id="veh_123" type="autonomous" route="route_3" depart="655"/>
    <vehicle id="veh_124" type="normal" route="route_5" depart="665"/>
    <vehicle id="veh_125" type="normal" route="route_6" depart="670"/>
    <vehicle id="veh_126" type="normal" route="route_10" depart="674"/>
    <vehicle id="veh_127" type="autonomous" route="route_5" depart="678"/>
    <vehicle id="veh_128" type="normal" route="route_1" depart="684"/>
    <vehicle id="veh_129" type="autonomous" route="route_4" depart="690"/>
    <vehicle id="veh_130" type="normal" route="route_2" depart="691"/>
    <vehicle id="veh_131" type="normal" route="route_2" depart="697"/>
    <vehicle id="veh_132" type="normal" route="route_4" depart="702"/>
    <vehicle id="veh_133" type="normal" route="route_7" depart="703"/>
    <vehicle id="veh_134" type="autonomous" route="route_11" depart="704"/>
    <vehicle id="veh_135" type="normal" route="route_4" depart="714"/>
    <vehicle id="veh_136" type="normal" route="route_7" depart="720"/>
    <vehicle id="veh_137" type="autonomous" route="route_8" depart="722"/>
    <vehicle id="veh_138" type="normal" route="route_11" depart="723"/>
    <vehicle id="veh_139" type="normal" route="route_3" depart="727"/>
    <vehicle id="veh_140" type="normal" route="route_10" depart="737"/>
    <vehicle id="veh_141" type="normal" route="route_10" depart="745"/>
    <vehicle id="veh_142" type="normal" route="route_9" depart="752"/>
    <vehicle id="veh_143" type="normal" route="route_7" depart="756"/>
    <vehicle id="veh_144" type="normal" route="route_5" depart="765"/>
    <vehicle id="veh_145" type="normal" route="route_4" depart="771"/>
    <vehicle id="veh_146" type="normal" route="route_6" depart="775"/>
    <vehicle id="veh_147" type="normal" route="route_3" depart="784"/>
    <vehicle id="veh_148" type="normal" route="route_3" depart="785"/>
    <vehicle id="veh_149" type="autonomous" route="route_7" depart="794"/>
    <vehicle id="veh_150" type="normal" route="route_3" depart="801"/>
    <vehicle id="veh_151" type="normal" route="route_7" depart="807"/>
    <vehicle id="veh_152" type="normal" route="route_2" depart="817"/>
    <vehicle id="veh_153" type="normal" route="route_1" depart="826"/>
    <vehicle id="veh_154" type="normal" route="route_11" depart="835"/>
    <vehicle id="veh_155" type="normal" route="route_4" depart="843"/>
    <vehicle id="veh_156" type="autonomous" route="route_1" depart="847"/>
    <vehicle id="veh_157" type="normal" route="route_1" depart="851"/>
    <vehicle id="veh_158" type="normal" route="route_6" depart="853"/>
    <vehicle id="veh_159" type="normal" route="route_8" depart="854"/>
    <vehicle id="veh_160" type="autonomous" route="route_7" depart="856"/>
    <vehicle id="veh_161" type="normal" route="route_3" depart="866"/>
    <vehicle id="veh_162" type="normal" route="route_3" depart="871"/>
    <vehicle id="veh_163" type="normal" route="route_10" depart="877"/>
    <vehicle id="veh_164" type="normal" route="route_11" depart="878"/>
    <vehicle id="veh_165" type="normal" route="route_5" depart="880"/>
    <vehicle id="veh_166" type="autonomous" route="route_0" depart="887"/>
    <vehicle id="veh_167" type="normal" route="route_10" depart="896"/>
    <vehicle id="veh_168" type="normal" route="route_1" depart="898"/>
    <vehicle id="veh_169" type="normal" route="route_10" depart="901"/>
    <vehicle id="veh_170" type="normal" route="route_2" depart="908"/>
    <vehicle id="veh_171" type="normal" route="route_7" depart="915"/>
    <vehicle id="veh_172" type="autonomous" route="route_2" depart="919"/>
    <vehicle id="veh_173" type="normal" route="route_11" depart="927"/>
    <vehicle id="veh_174" type="normal" route="route_10" depart="933"/>
    <vehicle id="veh_175" type="normal" route="route_11" depart="939"/>
    <vehicle id="veh_176" type="normal" route="route_8" depart="944"/>
    <vehicle id="veh_177" type="normal" route="route_9" depart="948"/>
    <vehicle id="veh_178" type="autonomous" route="route_7" depart="958"/>
    <vehicle id="veh_179" type="normal" route="route_2" depart="962"/>
    <vehicle id="veh_180" type="normal" route="route_1" depart="964"/>
    <vehicle id="veh_181" type="normal" route="route_2" depart="967"/>
    <vehicle id="veh_182" type="normal" route="route_10" depart="973"/>
    <vehicle id="veh_183" type="autonomous" route="route_2" depart="976"/>
    <vehicle id="veh_184" type="normal" route="route_5" depart="983"/>
    <vehicle id="veh_185" type="normal" route="route_7" depart="993"/>
    <vehicle id="veh_186" type="normal" route="route_6" depart="1000"/>
    <vehicle id="veh_187" type="normal" route="route_10" depart="1005"/>
    <vehicle id="veh_188" type="normal" route="route_10" depart="1008"/>
    <vehicle id="veh_189" type="normal" route="route_6" depart="1016"/>
    <vehicle id="veh_190" type="normal" route="route_0" depart="1022"/>
    <vehicle id="veh_191" type="normal" route="route_2" depart="1030"/>
    <vehicle id="veh_192" type="normal" route="route_5" depart="1033"/>
    <vehicle id="veh_193" type="normal" route="route_1" depart="1036"/>
    <vehicle id="veh_194" type="normal" route="route_0" depart="1044"/>
    <vehicle id="veh_195" type="normal" route="route_0" depart="1046"/>
    <vehicle id="veh_196" type="normal" route="route_7" depart="1052"/>
    <vehicle id="veh_197" type="normal" route="route_5" depart="1054"/>
    <vehicle id="veh_198" type="normal" route="route_9" depart="1056"/>
    <vehicle id="veh_199" type="normal" route="route_9" depart="1057"/>
</routes>