<routes>
    <vType id="uniform_car" accel="2.6" decel="4.5" sigma="0.5" length="5" maxSpeed="33.33" type="car" vClass="passenger"/>
    <route id="route_0" edges="L0 L5"/>
    <route id="route_1" edges="L2 L1"/>
    <route id="route_2" edges="L4 L3"/>
    <route id="route_3" edges="L2 L5"/>
    <vehicle id="veh_0" type="uniform_car" route="route_2" depart="0"/>
    <vehicle id="veh_1" type="uniform_car" route="route_3" depart="1"/>
    <vehicle id="veh_2" type="uniform_car" route="route_2" depart="2"/>
    <vehicle id="veh_3" type="uniform_car" route="route_3" depart="3"/>
    <vehicle id="veh_4" type="uniform_car" route="route_1" depart="4"/>
    <vehicle id="veh_5" type="uniform_car" route="route_2" depart="5"/>
    <vehicle id="veh_6" type="uniform_car" route="route_1" depart="6"/>
    <vehicle id="veh_7" type="uniform_car" route="route_0" depart="7"/>
    <vehicle id="veh_8" type="uniform_car" route="route_3" depart="8"/>
    <vehicle id="veh_9" type="uniform_car" route="route_3" depart="9"/>
    <vehicle id="veh_10" type="uniform_car" route="route_0" depart="10"/>
    <vehicle id="veh_11" type="uniform_car" route="route_3" depart="11"/>
    <vehicle id="veh_12" type="uniform_car" route="route_2" depart="12"/>
    <vehicle id="veh_13" type="uniform_car" route="route_2" depart="13"/>
    <vehicle id="veh_14" type="uniform_car" route="route_2" depart="14"/>
    <vehicle id="veh_15" type="uniform_car" route="route_2" depart="15"/>
    <vehicle id="veh_16" type="uniform_car" route="route_1" depart="16"/>
    <vehicle id="veh_17" type="uniform_car" route="route_3" depart="17"/>
    <vehicle id="veh_18" type="uniform_car" route="route_1" depart="18"/>
    <vehicle id="veh_19" type="uniform_car" route="route_0" depart="19"/>
    <vehicle id="veh_20" type="uniform_car" route="route_1" depart="20"/>
    <vehicle id="veh_21" type="uniform_car" route="route_1" depart="21"/>
    <vehicle id="veh_22" type="uniform_car" route="route_0" depart="22"/>
    <vehicle id="veh_23" type="uniform_car" route="route_2" depart="23"/>
    <vehicle id="veh_24" type="uniform_car" route="route_1" depart="24"/>
    <vehicle id="veh_25" type="uniform_car" route="route_2" depart="25"/>
    <vehicle id="veh_26" type="uniform_car" route="route_1" depart="26"/>
    <vehicle id="veh_27" type="uniform_car" route="route_0" depart="27"/>
    <vehicle id="veh_28" type="uniform_car" route="route_3" depart="28"/>
    <vehicle id="veh_29" type="uniform_car" route="route_2" depart="29"/>
    <vehicle id="veh_30" type="uniform_car" route="route_3" depart="30"/>
    <vehicle id="veh_31" type="uniform_car" route="route_2" depart="31"/>
    <vehicle id="veh_32" type="uniform_car" route="route_3" depart="32"/>
    <vehicle id="veh_33" type="uniform_car" route="route_1" depart="33"/>
    <vehicle id="veh_34" type="uniform_car" route="route_2" depart="34"/>
    <vehicle id="veh_35" type="uniform_car" route="route_1" depart="35"/>
    <vehicle id="veh_36" type="uniform_car" route="route_2" depart="36"/>
    <vehicle id="veh_37" type="uniform_car" route="route_3" depart="37"/>
    <vehicle id="veh_38" type="uniform_car" route="route_0" depart="38"/>
    <vehicle id="veh_39" type="uniform_car" route="route_1" depart="39"/>
    <vehicle id="veh_40" type="uniform_car" route="route_1" depart="40"/>
    <vehicle id="veh_41" type="uniform_car" route="route_1" depart="41"/>
    <vehicle id="veh_42" type="uniform_car" route="route_1" depart="42"/>
    <vehicle id="veh_43" type="uniform_car" route="route_0" depart="43"/>
    <vehicle id="veh_44" type="uniform_car" route="route_3" depart="44"/>
    <vehicle id="veh_45" type="uniform_car" route="route_0" depart="45"/>
    <vehicle id="veh_46" type="uniform_car" route="route_1" depart="46"/>
    <vehicle id="veh_47" type="uniform_car" route="route_2" depart="47"/>
    <vehicle id="veh_48" type="uniform_car" route="route_2" depart="48"/>
    <vehicle id="veh_49" type="uniform_car" route="route_3" depart="49"/>
    <vehicle id="veh_50" type="uniform_car" route="route_2" depart="50"/>
    <vehicle id="veh_51" type="uniform_car" route="route_2" depart="51"/>
    <vehicle id="veh_52" type="uniform_car" route="route_3" depart="52"/>
    <vehicle id="veh_53" type="uniform_car" route="route_1" depart="53"/>
    <vehicle id="veh_54" type="uniform_car" route="route_3" depart="54"/>
    <vehicle id="veh_55" type="uniform_car" route="route_1" depart="55"/>
    <vehicle id="veh_56" type="uniform_car" route="route_3" depart="56"/>
    <vehicle id="veh_57" type="uniform_car" route="route_1" depart="57"/>
    <vehicle id="veh_58" type="uniform_car" route="route_2" depart="58"/>
    <vehicle id="veh_59" type="uniform_car" route="route_2" depart="59"/>
    <vehicle id="veh_60" type="uniform_car" route="route_1" depart="60"/>
    <vehicle id="veh_61" type="uniform_car" route="route_3" depart="61"/>
    <vehicle id="veh_62" type="uniform_car" route="route_3" depart="62"/>
    <vehicle id="veh_63" type="uniform_car" route="route_2" depart="63"/>
    <vehicle id="veh_64" type="uniform_car" route="route_0" depart="64"/>
    <vehicle id="veh_65" type="uniform_car" route="route_1" depart="65"/>
    <vehicle id="veh_66" type="uniform_car" route="route_1" depart="66"/>
    <vehicle id="veh_67" type="uniform_car" route="route_1" depart="67"/>
    <vehicle id="veh_68" type="uniform_car" route="route_3" depart="68"/>
    <vehicle id="veh_69" type="uniform_car" route="route_3" depart="69"/>
    <vehicle id="veh_70" type="uniform_car" route="route_2" depart="70"/>
    <vehicle id="veh_71" type="uniform_car" route="route_3" depart="71"/>
    <vehicle id="veh_72" type="uniform_car" route="route_0" depart="72"/>
    <vehicle id="veh_73" type="uniform_car" route="route_3" depart="73"/>
    <vehicle id="veh_74" type="uniform_car" route="route_3" depart="74"/>
    <vehicle id="veh_75" type="uniform_car" route="route_2" depart="75"/>
    <vehicle id="veh_76" type="uniform_car" route="route_0" depart="76"/>
    <vehicle id="veh_77" type="uniform_car" route="route_2" depart="77"/>
    <vehicle id="veh_78" type="uniform_car" route="route_2" depart="78"/>
    <vehicle id="veh_79" type="uniform_car" route="route_3" depart="79"/>
    <vehicle id="veh_80" type="uniform_car" route="route_3" depart="80"/>
    <vehicle id="veh_81" type="uniform_car" route="route_1" depart="81"/>
    <vehicle id="veh_82" type="uniform_car" route="route_0" depart="82"/>
    <vehicle id="veh_83" type="uniform_car" route="route_1" depart="83"/>
    <vehicle id="veh_84" type="uniform_car" route="route_2" depart="84"/>
    <vehicle id="veh_85" type="uniform_car" route="route_2" depart="85"/>
    <vehicle id="veh_86" type="uniform_car" route="route_1" depart="86"/>
    <vehicle id="veh_87" type="uniform_car" route="route_0" depart="87"/>
    <vehicle id="veh_88" type="uniform_car" route="route_0" depart="88"/>
    <vehicle id="veh_89" type="uniform_car" route="route_2" depart="89"/>
    <vehicle id="veh_90" type="uniform_car" route="route_2" depart="90"/>
    <vehicle id="veh_91" type="uniform_car" route="route_3" depart="91"/>
    <vehicle id="veh_92" type="uniform_car" route="route_3" depart="92"/>
    <vehicle id="veh_93" type="uniform_car" route="route_0" depart="93"/>
    <vehicle id="veh_94" type="uniform_car" route="route_3" depart="94"/>
    <vehicle id="veh_95" type="uniform_car" route="route_0" depart="95"/>
    <vehicle id="veh_96" type="uniform_car" route="route_0" depart="96"/>
    <vehicle id="veh_97" type="uniform_car" route="route_1" depart="97"/>
    <vehicle id="veh_98" type="uniform_car" route="route_0" depart="98"/>
    <vehicle id="veh_99" type="uniform_car" route="route_1" depart="99"/>
    <vehicle id="veh_100" type="uniform_car" route="route_0" depart="100"/>
    <vehicle id="veh_101" type="uniform_car" route="route_3" depart="101"/>
    <vehicle id="veh_102" type="uniform_car" route="route_1" depart="102"/>
    <vehicle id="veh_103" type="uniform_car" route="route_3" depart="103"/>
    <vehicle id="veh_104" type="uniform_car" route="route_0" depart="104"/>
    <vehicle id="veh_105" type="uniform_car" route="route_2" depart="105"/>
    <vehicle id="veh_106" type="uniform_car" route="route_2" depart="106"/>
    <vehicle id="veh_107" type="uniform_car" route="route_2" depart="107"/>
    <vehicle id="veh_108" type="uniform_car" route="route_1" depart="108"/>
    <vehicle id="veh_109" type="uniform_car" route="route_3" depart="109"/>
    <vehicle id="veh_110" type="uniform_car" route="route_2" depart="110"/>
    <vehicle id="veh_111" type="uniform_car" route="route_3" depart="111"/>
    <vehicle id="veh_112" type="uniform_car" route="route_0" depart="112"/>
    <vehicle id="veh_113" type="uniform_car" route="route_2" depart="113"/>
    <vehicle id="veh_114" type="uniform_car" route="route_2" depart="114"/>
    <vehicle id="veh_115" type="uniform_car" route="route_2" depart="115"/>
    <vehicle id="veh_116" type="uniform_car" route="route_2" depart="116"/>
    <vehicle id="veh_117" type="uniform_car" route="route_0" depart="117"/>
    <vehicle id="veh_118" type="uniform_car" route="route_0" depart="118"/>
    <vehicle id="veh_119" type="uniform_car" route="route_1" depart="119"/>
    <vehicle id="veh_120" type="uniform_car" route="route_1" depart="120"/>
    <vehicle id="veh_121" type="uniform_car" route="route_1" depart="121"/>
    <vehicle id="veh_122" type="uniform_car" route="route_2" depart="122"/>
    <vehicle id="veh_123" type="uniform_car" route="route_2" depart="123"/>
    <vehicle id="veh_124" type="uniform_car" route="route_3" depart="124"/>
    <vehicle id="veh_125" type="uniform_car" route="route_2" depart="125"/>
    <vehicle id="veh_126" type="uniform_car" route="route_1" depart="126"/>
    <vehicle id="veh_127" type="uniform_car" route="route_1" depart="127"/>
    <vehicle id="veh_128" type="uniform_car" route="route_3" depart="128"/>
    <vehicle id="veh_129" type="uniform_car" route="route_0" depart="129"/>
    <vehicle id="veh_130" type="uniform_car" route="route_0" depart="130"/>
    <vehicle id="veh_131" type="uniform_car" route="route_3" depart="131"/>
    <vehicle id="veh_132" type="uniform_car" route="route_2" depart="132"/>
    <vehicle id="veh_133" type="uniform_car" route="route_2" depart="133"/>
    <vehicle id="veh_134" type="uniform_car" route="route_0" depart="134"/>
    <vehicle id="veh_135" type="uniform_car" route="route_2" depart="135"/>
    <vehicle id="veh_136" type="uniform_car" route="route_3" depart="136"/>
    <vehicle id="veh_137" type="uniform_car" route="route_0" depart="137"/>
    <vehicle id="veh_138" type="uniform_car" route="route_0" depart="138"/>
    <vehicle id="veh_139" type="uniform_car" route="route_3" depart="139"/>
    <vehicle id="veh_140" type="uniform_car" route="route_0" depart="140"/>
    <vehicle id="veh_141" type="uniform_car" route="route_0" depart="141"/>
    <vehicle id="veh_142" type="uniform_car" route="route_2" depart="142"/>
    <vehicle id="veh_143" type="uniform_car" route="route_0" depart="143"/>
    <vehicle id="veh_144" type="uniform_car" route="route_2" depart="144"/>
    <vehicle id="veh_145" type="uniform_car" route="route_2" depart="145"/>
    <vehicle id="veh_146" type="uniform_car" route="route_1" depart="146"/>
    <vehicle id="veh_147" type="uniform_car" route="route_0" depart="147"/>
    <vehicle id="veh_148" type="uniform_car" route="route_2" depart="148"/>
    <vehicle id="veh_149" type="uniform_car" route="route_0" depart="149"/>
    <vehicle id="veh_150" type="uniform_car" route="route_1" depart="150"/>
    <vehicle id="veh_151" type="uniform_car" route="route_2" depart="151"/>
    <vehicle id="veh_152" type="uniform_car" route="route_3" depart="152"/>
    <vehicle id="veh_153" type="uniform_car" route="route_2" depart="153"/>
    <vehicle id="veh_154" type="uniform_car" route="route_3" depart="154"/>
    <vehicle id="veh_155" type="uniform_car" route="route_0" depart="155"/>
    <vehicle id="veh_156" type="uniform_car" route="route_1" depart="156"/>
    <vehicle id="veh_157" type="uniform_car" route="route_0" depart="157"/>
    <vehicle id="veh_158" type="uniform_car" route="route_3" depart="158"/>
    <vehicle id="veh_159" type="uniform_car" route="route_3" depart="159"/>
    <vehicle id="veh_160" type="uniform_car" route="route_2" depart="160"/>
    <vehicle id="veh_161" type="uniform_car" route="route_3" depart="161"/>
    <vehicle id="veh_162" type="uniform_car" route="route_3" depart="162"/>
    <vehicle id="veh_163" type="uniform_car" route="route_2" depart="163"/>
    <vehicle id="veh_164" type="uniform_car" route="route_2" depart="164"/>
    <vehicle id="veh_165" type="uniform_car" route="route_3" depart="165"/>
    <vehicle id="veh_166" type="uniform_car" route="route_3" depart="166"/>
    <vehicle id="veh_167" type="uniform_car" route="route_1" depart="167"/>
    <vehicle id="veh_168" type="uniform_car" route="route_0" depart="168"/>
    <vehicle id="veh_169" type="uniform_car" route="route_0" depart="169"/>
    <vehicle id="veh_170" type="uniform_car" route="route_2" depart="170"/>
    <vehicle id="veh_171" type="uniform_car" route="route_3" depart="171"/>
    <vehicle id="veh_172" type="uniform_car" route="route_2" depart="172"/>
    <vehicle id="veh_173" type="uniform_car" route="route_0" depart="173"/>
    <vehicle id="veh_174" type="uniform_car" route="route_0" depart="174"/>
    <vehicle id="veh_175" type="uniform_car" route="route_3" depart="175"/>
    <vehicle id="veh_176" type="uniform_car" route="route_2" depart="176"/>
    <vehicle id="veh_177" type="uniform_car" route="route_2" depart="177"/>
    <vehicle id="veh_178" type="uniform_car" route="route_1" depart="178"/>
    <vehicle id="veh_179" type="uniform_car" route="route_1" depart="179"/>
    <vehicle id="veh_180" type="uniform_car" route="route_0" depart="180"/>
    <vehicle id="veh_181" type="uniform_car" route="route_0" depart="181"/>
    <vehicle id="veh_182" type="uniform_car" route="route_3" depart="182"/>
    <vehicle id="veh_183" type="uniform_car" route="route_1" depart="183"/>
    <vehicle id="veh_184" type="uniform_car" route="route_3" depart="184"/>
    <vehicle id="veh_185" type="uniform_car" route="route_2" depart="185"/>
    <vehicle id="veh_186" type="uniform_car" route="route_0" depart="186"/>
    <vehicle id="veh_187" type="uniform_car" route="route_2" depart="187"/>
    <vehicle id="veh_188" type="uniform_car" route="route_3" depart="188"/>
    <vehicle id="veh_189" type="uniform_car" route="route_1" depart="189"/>
    <vehicle id="veh_190" type="uniform_car" route="route_1" depart="190"/>
    <vehicle id="veh_191" type="uniform_car" route="route_3" depart="191"/>
    <vehicle id="veh_192" type="uniform_car" route="route_3" depart="192"/>
    <vehicle id="veh_193" type="uniform_car" route="route_0" depart="193"/>
    <vehicle id="veh_194" type="uniform_car" route="route_1" depart="194"/>
    <vehicle id="veh_195" type="uniform_car" route="route_0" depart="195"/>
    <vehicle id="veh_196" type="uniform_car" route="route_2" depart="196"/>
    <vehicle id="veh_197" type="uniform_car" route="route_1" depart="197"/>
    <vehicle id="veh_198" type="uniform_car" route="route_0" depart="198"/>
    <vehicle id="veh_199" type="uniform_car" route="route_3" depart="199"/>
    <vehicle id="veh_200" type="uniform_car" route="route_3" depart="200"/>
    <vehicle id="veh_201" type="uniform_car" route="route_0" depart="201"/>
    <vehicle id="veh_202" type="uniform_car" route="route_1" depart="202"/>
    <vehicle id="veh_203" type="uniform_car" route="route_3" depart="203"/>
    <vehicle id="veh_204" type="uniform_car" route="route_2" depart="204"/>
    <vehicle id="veh_205" type="uniform_car" route="route_1" depart="205"/>
    <vehicle id="veh_206" type="uniform_car" route="route_2" depart="206"/>
    <vehicle id="veh_207" type="uniform_car" route="route_2" depart="207"/>
    <vehicle id="veh_208" type="uniform_car" route="route_3" depart="208"/>
    <vehicle id="veh_209" type="uniform_car" route="route_0" depart="209"/>
    <vehicle id="veh_210" type="uniform_car" route="route_3" depart="210"/>
    <vehicle id="veh_211" type="uniform_car" route="route_2" depart="211"/>
    <vehicle id="veh_212" type="uniform_car" route="route_1" depart="212"/>
    <vehicle id="veh_213" type="uniform_car" route="route_0" depart="213"/>
    <vehicle id="veh_214" type="uniform_car" route="route_3" depart="214"/>
    <vehicle id="veh_215" type="uniform_car" route="route_3" depart="215"/>
    <vehicle id="veh_216" type="uniform_car" route="route_3" depart="216"/>
    <vehicle id="veh_217" type="uniform_car" route="route_1" depart="217"/>
    <vehicle id="veh_218" type="uniform_car" route="route_3" depart="218"/>
    <vehicle id="veh_219" type="uniform_car" route="route_1" depart="219"/>
    <vehicle id="veh_220" type="uniform_car" route="route_3" depart="220"/>
    <vehicle id="veh_221" type="uniform_car" route="route_1" depart="221"/>
    <vehicle id="veh_222" type="uniform_car" route="route_1" depart="222"/>
    <vehicle id="veh_223" type="uniform_car" route="route_3" depart="223"/>
    <vehicle id="veh_224" type="uniform_car" route="route_1" depart="224"/>
    <vehicle id="veh_225" type="uniform_car" route="route_0" depart="225"/>
    <vehicle id="veh_226" type="uniform_car" route="route_2" depart="226"/>
    <vehicle id="veh_227" type="uniform_car" route="route_3" depart="227"/>
    <vehicle id="veh_228" type="uniform_car" route="route_0" depart="228"/>
    <vehicle id="veh_229" type="uniform_car" route="route_3" depart="229"/>
    <vehicle id="veh_230" type="uniform_car" route="route_3" depart="230"/>
    <vehicle id="veh_231" type="uniform_car" route="route_1" depart="231"/>
    <vehicle id="veh_232" type="uniform_car" route="route_2" depart="232"/>
    <vehicle id="veh_233" type="uniform_car" route="route_2" depart="233"/>
    <vehicle id="veh_234" type="uniform_car" route="route_1" depart="234"/>
    <vehicle id="veh_235" type="uniform_car" route="route_3" depart="235"/>
    <vehicle id="veh_236" type="uniform_car" route="route_2" depart="236"/>
    <vehicle id="veh_237" type="uniform_car" route="route_3" depart="237"/>
    <vehicle id="veh_238" type="uniform_car" route="route_0" depart="238"/>
    <vehicle id="veh_239" type="uniform_car" route="route_3" depart="239"/>
    <vehicle id="veh_240" type="uniform_car" route="route_3" depart="240"/>
    <vehicle id="veh_241" type="uniform_car" route="route_2" depart="241"/>
    <vehicle id="veh_242" type="uniform_car" route="route_3" depart="242"/>
    <vehicle id="veh_243" type="uniform_car" route="route_2" depart="243"/>
    <vehicle id="veh_244" type="uniform_car" route="route_3" depart="244"/>
    <vehicle id="veh_245" type="uniform_car" route="route_2" depart="245"/>
    <vehicle id="veh_246" type="uniform_car" route="route_2" depart="246"/>
    <vehicle id="veh_247" type="uniform_car" route="route_3" depart="247"/>
    <vehicle id="veh_248" type="uniform_car" route="route_1" depart="248"/>
    <vehicle id="veh_249" type="uniform_car" route="route_1" depart="249"/>
    <vehicle id="veh_250" type="uniform_car" route="route_1" depart="250"/>
    <vehicle id="veh_251" type="uniform_car" route="route_2" depart="251"/>
    <vehicle id="veh_252" type="uniform_car" route="route_3" depart="252"/>
    <vehicle id="veh_253" type="uniform_car" route="route_3" depart="253"/>
    <vehicle id="veh_254" type="uniform_car" route="route_0" depart="254"/>
    <vehicle id="veh_255" type="uniform_car" route="route_0" depart="255"/>
    <vehicle id="veh_256" type="uniform_car" route="route_3" depart="256"/>
    <vehicle id="veh_257" type="uniform_car" route="route_3" depart="257"/>
    <vehicle id="veh_258" type="uniform_car" route="route_3" depart="258"/>
    <vehicle id="veh_259" type="uniform_car" route="route_2" depart="259"/>
    <vehicle id="veh_260" type="uniform_car" route="route_0" depart="260"/>
    <vehicle id="veh_261" type="uniform_car" route="route_3" depart="261"/>
    <vehicle id="veh_262" type="uniform_car" route="route_1" depart="262"/>
    <vehicle id="veh_263" type="uniform_car" route="route_2" depart="263"/>
    <vehicle id="veh_264" type="uniform_car" route="route_3" depart="264"/>
    <vehicle id="veh_265" type="uniform_car" route="route_0" depart="265"/>
    <vehicle id="veh_266" type="uniform_car" route="route_0" depart="266"/>
    <vehicle id="veh_267" type="uniform_car" route="route_2" depart="267"/>
    <vehicle id="veh_268" type="uniform_car" route="route_0" depart="268"/>
    <vehicle id="veh_269" type="uniform_car" route="route_3" depart="269"/>
    <vehicle id="veh_270" type="uniform_car" route="route_1" depart="270"/>
    <vehicle id="veh_271" type="uniform_car" route="route_3" depart="271"/>
    <vehicle id="veh_272" type="uniform_car" route="route_1" depart="272"/>
    <vehicle id="veh_273" type="uniform_car" route="route_2" depart="273"/>
    <vehicle id="veh_274" type="uniform_car" route="route_3" depart="274"/>
    <vehicle id="veh_275" type="uniform_car" route="route_3" depart="275"/>
    <vehicle id="veh_276" type="uniform_car" route="route_1" depart="276"/>
    <vehicle id="veh_277" type="uniform_car" route="route_2" depart="277"/>
    <vehicle id="veh_278" type="uniform_car" route="route_3" depart="278"/>
    <vehicle id="veh_279" type="uniform_car" route="route_1" depart="279"/>
    <vehicle id="veh_280" type="uniform_car" route="route_2" depart="280"/>
    <vehicle id="veh_281" type="uniform_car" route="route_1" depart="281"/>
    <vehicle id="veh_282" type="uniform_car" route="route_0" depart="282"/>
    <vehicle id="veh_283" type="uniform_car" route="route_1" depart="283"/>
    <vehicle id="veh_284" type="uniform_car" route="route_1" depart="284"/>
    <vehicle id="veh_285" type="uniform_car" route="route_3" depart="285"/>
    <vehicle id="veh_286" type="uniform_car" route="route_0" depart="286"/>
    <vehicle id="veh_287" type="uniform_car" route="route_0" depart="287"/>
    <vehicle id="veh_288" type="uniform_car" route="route_0" depart="288"/>
    <vehicle id="veh_289" type="uniform_car" route="route_1" depart="289"/>
    <vehicle id="veh_290" type="uniform_car" route="route_3" depart="290"/>
    <vehicle id="veh_291" type="uniform_car" route="route_2" depart="291"/>
    <vehicle id="veh_292" type="uniform_car" route="route_0" depart="292"/>
    <vehicle id="veh_293" type="uniform_car" route="route_1" depart="293"/>
    <vehicle id="veh_294" type="uniform_car" route="route_2" depart="294"/>
    <vehicle id="veh_295" type="uniform_car" route="route_2" depart="295"/>
    <vehicle id="veh_296" type="uniform_car" route="route_0" depart="296"/>
    <vehicle id="veh_297" type="uniform_car" route="route_2" depart="297"/>
    <vehicle id="veh_298" type="uniform_car" route="route_3" depart="298"/>
    <vehicle id="veh_299" type="uniform_car" route="route_1" depart="299"/>
    <vehicle id="veh_300" type="uniform_car" route="route_2" depart="300"/>
    <vehicle id="veh_301" type="uniform_car" route="route_3" depart="301"/>
    <vehicle id="veh_302" type="uniform_car" route="route_0" depart="302"/>
    <vehicle id="veh_303" type="uniform_car" route="route_2" depart="303"/>
    <vehicle id="veh_304" type="uniform_car" route="route_1" depart="304"/>
    <vehicle id="veh_305" type="uniform_car" route="route_1" depart="305"/>
    <vehicle id="veh_306" type="uniform_car" route="route_3" depart="306"/>
    <vehicle id="veh_307" type="uniform_car" route="route_1" depart="307"/>
    <vehicle id="veh_308" type="uniform_car" route="route_3" depart="308"/>
    <vehicle id="veh_309" type="uniform_car" route="route_2" depart="309"/>
    <vehicle id="veh_310" type="uniform_car" route="route_0" depart="310"/>
    <vehicle id="veh_311" type="uniform_car" route="route_3" depart="311"/>
    <vehicle id="veh_312" type="uniform_car" route="route_1" depart="312"/>
    <vehicle id="veh_313" type="uniform_car" route="route_1" depart="313"/>
    <vehicle id="veh_314" type="uniform_car" route="route_2" depart="314"/>
    <vehicle id="veh_315" type="uniform_car" route="route_1" depart="315"/>
    <vehicle id="veh_316" type="uniform_car" route="route_0" depart="316"/>
    <vehicle id="veh_317" type="uniform_car" route="route_2" depart="317"/>
    <vehicle id="veh_318" type="uniform_car" route="route_1" depart="318"/>
    <vehicle id="veh_319" type="uniform_car" route="route_1" depart="319"/>
    <vehicle id="veh_320" type="uniform_car" route="route_3" depart="320"/>
    <vehicle id="veh_321" type="uniform_car" route="route_1" depart="321"/>
    <vehicle id="veh_322" type="uniform_car" route="route_2" depart="322"/>
    <vehicle id="veh_323" type="uniform_car" route="route_2" depart="323"/>
    <vehicle id="veh_324" type="uniform_car" route="route_0" depart="324"/>
    <vehicle id="veh_325" type="uniform_car" route="route_3" depart="325"/>
    <vehicle id="veh_326" type="uniform_car" route="route_1" depart="326"/>
    <vehicle id="veh_327" type="uniform_car" route="route_0" depart="327"/>
    <vehicle id="veh_328" type="uniform_car" route="route_1" depart="328"/>
    <vehicle id="veh_329" type="uniform_car" route="route_2" depart="329"/>
    <vehicle id="veh_330" type="uniform_car" route="route_1" depart="330"/>
    <vehicle id="veh_331" type="uniform_car" route="route_1" depart="331"/>
    <vehicle id="veh_332" type="uniform_car" route="route_0" depart="332"/>
    <vehicle id="veh_333" type="uniform_car" route="route_0" depart="333"/>
    <vehicle id="veh_334" type="uniform_car" route="route_0" depart="334"/>
    <vehicle id="veh_335" type="uniform_car" route="route_2" depart="335"/>
    <vehicle id="veh_336" type="uniform_car" route="route_1" depart="336"/>
    <vehicle id="veh_337" type="uniform_car" route="route_1" depart="337"/>
    <vehicle id="veh_338" type="uniform_car" route="route_1" depart="338"/>
    <vehicle id="veh_339" type="uniform_car" route="route_3" depart="339"/>
    <vehicle id="veh_340" type="uniform_car" route="route_0" depart="340"/>
    <vehicle id="veh_341" type="uniform_car" route="route_3" depart="341"/>
    <vehicle id="veh_342" type="uniform_car" route="route_3" depart="342"/>
    <vehicle id="veh_343" type="uniform_car" route="route_2" depart="343"/>
    <vehicle id="veh_344" type="uniform_car" route="route_3" depart="344"/>
    <vehicle id="veh_345" type="uniform_car" route="route_1" depart="345"/>
    <vehicle id="veh_346" type="uniform_car" route="route_0" depart="346"/>
    <vehicle id="veh_347" type="uniform_car" route="route_0" depart="347"/>
    <vehicle id="veh_348" type="uniform_car" route="route_0" depart="348"/>
    <vehicle id="veh_349" type="uniform_car" route="route_2" depart="349"/>
    <vehicle id="veh_350" type="uniform_car" route="route_3" depart="350"/>
    <vehicle id="veh_351" type="uniform_car" route="route_3" depart="351"/>
    <vehicle id="veh_352" type="uniform_car" route="route_1" depart="352"/>
    <vehicle id="veh_353" type="uniform_car" route="route_1" depart="353"/>
    <vehicle id="veh_354" type="uniform_car" route="route_1" depart="354"/>
    <vehicle id="veh_355" type="uniform_car" route="route_0" depart="355"/>
    <vehicle id="veh_356" type="uniform_car" route="route_2" depart="356"/>
    <vehicle id="veh_357" type="uniform_car" route="route_3" depart="357"/>
    <vehicle id="veh_358" type="uniform_car" route="route_2" depart="358"/>
    <vehicle id="veh_359" type="uniform_car" route="route_1" depart="359"/>
    <vehicle id="veh_360" type="uniform_car" route="route_2" depart="360"/>
    <vehicle id="veh_361" type="uniform_car" route="route_2" depart="361"/>
    <vehicle id="veh_362" type="uniform_car" route="route_1" depart="362"/>
    <vehicle id="veh_363" type="uniform_car" route="route_3" depart="363"/>
    <vehicle id="veh_364" type="uniform_car" route="route_0" depart="364"/>
    <vehicle id="veh_365" type="uniform_car" route="route_1" depart="365"/>
    <vehicle id="veh_366" type="uniform_car" route="route_3" depart="366"/>
    <vehicle id="veh_367" type="uniform_car" route="route_1" depart="367"/>
    <vehicle id="veh_368" type="uniform_car" route="route_2" depart="368"/>
    <vehicle id="veh_369" type="uniform_car" route="route_1" depart="369"/>
    <vehicle id="veh_370" type="uniform_car" route="route_1" depart="370"/>
    <vehicle id="veh_371" type="uniform_car" route="route_3" depart="371"/>
    <vehicle id="veh_372" type="uniform_car" route="route_2" depart="372"/>
    <vehicle id="veh_373" type="uniform_car" route="route_0" depart="373"/>
    <vehicle id="veh_374" type="uniform_car" route="route_3" depart="374"/>
    <vehicle id="veh_375" type="uniform_car" route="route_0" depart="375"/>
    <vehicle id="veh_376" type="uniform_car" route="route_3" depart="376"/>
    <vehicle id="veh_377" type="uniform_car" route="route_2" depart="377"/>
    <vehicle id="veh_378" type="uniform_car" route="route_0" depart="378"/>
    <vehicle id="veh_379" type="uniform_car" route="route_1" depart="379"/>
    <vehicle id="veh_380" type="uniform_car" route="route_3" depart="380"/>
    <vehicle id="veh_381" type="uniform_car" route="route_1" depart="381"/>
    <vehicle id="veh_382" type="uniform_car" route="route_2" depart="382"/>
    <vehicle id="veh_383" type="uniform_car" route="route_3" depart="383"/>
    <vehicle id="veh_384" type="uniform_car" route="route_1" depart="384"/>
    <vehicle id="veh_385" type="uniform_car" route="route_3" depart="385"/>
    <vehicle id="veh_386" type="uniform_car" route="route_1" depart="386"/>
    <vehicle id="veh_387" type="uniform_car" route="route_3" depart="387"/>
    <vehicle id="veh_388" type="uniform_car" route="route_3" depart="388"/>
    <vehicle id="veh_389" type="uniform_car" route="route_0" depart="389"/>
    <vehicle id="veh_390" type="uniform_car" route="route_2" depart="390"/>
    <vehicle id="veh_391" type="uniform_car" route="route_3" depart="391"/>
    <vehicle id="veh_392" type="uniform_car" route="route_3" depart="392"/>