<trips>
    <vType id="normal" accel="2.6" decel="4.5" sigma="0.7" tau="1.2" length="5" maxSpeed="33.33" guiShape="passenger"/>
    <vType id="autonomous" accel="2.6" decel="4.5" sigma="0.0" length="5" maxSpeed="33.33" guiShape="passenger" color="0,255,0" carFollowModel="Krauss" lcStrategic="5.0" lcCooperative="5.0" lcSpeedGain="5.0" lcKeepRight="1.0" />
    <trip id="veh_0" type="autonomous" from="L6" to="L3" depart="0"/>
    <trip id="veh_1" type="autonomous" from="L6" to="L5" depart="3"/>
    <trip id="veh_2" type="autonomous" from="L6" to="L9" depart="6"/>
    <trip id="veh_3" type="autonomous" from="L4" to="L9" depart="9"/>
    <trip id="veh_4" type="autonomous" from="A7" to="L9" depart="12"/>
    <trip id="veh_5" type="autonomous" from="L8" to="A6" depart="15"/>
    <trip id="veh_6" type="autonomous" from="L6" to="L3" depart="18"/>
    <trip id="veh_7" type="autonomous" from="L6" to="L9" depart="21"/>
    <trip id="veh_8" type="autonomous" from="L10" to="L1" depart="24"/>
    <trip id="veh_9" type="autonomous" from="A7" to="L1" depart="27"/>
    <trip id="veh_10" type="autonomous" from="L0" to="L7" depart="30"/>
    <trip id="veh_11" type="autonomous" from="L4" to="A6" depart="33"/>
    <trip id="veh_12" type="autonomous" from="L2" to="L1" depart="36"/>
    <trip id="veh_13" type="autonomous" from="L0" to="L3" depart="39"/>
    <trip id="veh_14" type="autonomous" from="L8" to="A1" depart="42"/>
    <trip id="veh_15" type="autonomous" from="L2" to="L11" depart="45"/>
    <trip id="veh_16" type="autonomous" from="L0" to="L3" depart="48"/>
    <trip id="veh_17" type="autonomous" from="L8" to="A6" depart="51"/>
    <trip id="veh_18" type="autonomous" from="L4" to="L9" depart="54"/>
    <trip id="veh_19" type="autonomous" from="L6" to="A1" depart="57"/>
    <trip id="veh_20" type="autonomous" from="A0" to="L11" depart="60"/>
    <trip id="veh_21" type="autonomous" from="A7" to="L7" depart="63"/>
    <trip id="veh_22" type="autonomous" from="A7" to="L3" depart="66"/>
    <trip id="veh_23" type="autonomous" from="A0" to="L1" depart="69"/>
    <trip id="veh_24" type="autonomous" from="L10" to="L7" depart="72"/>
    <trip id="veh_25" type="autonomous" from="L2" to="L5" depart="75"/>
    <trip id="veh_26" type="autonomous" from="L10" to="L5" depart="78"/>
    <trip id="veh_27" type="autonomous" from="L0" to="L9" depart="81"/>
    <trip id="veh_28" type="autonomous" from="L10" to="A6" depart="84"/>
    <trip id="veh_29" type="autonomous" from="L10" to="L5" depart="87"/>
    <trip id="veh_30" type="autonomous" from="L10" to="L1" depart="90"/>
    <trip id="veh_31" type="autonomous" from="A0" to="L3" depart="93"/>
    <trip id="veh_32" type="autonomous" from="L8" to="A1" depart="96"/>
    <trip id="veh_33" type="autonomous" from="L8" to="L7" depart="99"/>
    <trip id="veh_34" type="autonomous" from="L2" to="L11" depart="102"/>
    <trip id="veh_35" type="autonomous" from="L10" to="L7" depart="105"/>
    <trip id="veh_36" type="autonomous" from="A0" to="L11" depart="108"/>
    <trip id="veh_37" type="autonomous" from="L0" to="L3" depart="111"/>
    <trip id="veh_38" type="autonomous" from="A0" to="L9" depart="114"/>
    <trip id="veh_39" type="autonomous" from="L8" to="A6" depart="117"/>
    <trip id="veh_40" type="autonomous" from="A7" to="L11" depart="120"/>
    <trip id="veh_41" type="autonomous" from="A0" to="L7" depart="123"/>
    <trip id="veh_42" type="autonomous" from="L4" to="A1" depart="126"/>
    <trip id="veh_43" type="autonomous" from="L4" to="A6" depart="129"/>
    <trip id="veh_44" type="autonomous" from="A7" to="L5" depart="132"/>
    <trip id="veh_45" type="autonomous" from="L2" to="L5" depart="135"/>
    <trip id="veh_46" type="autonomous" from="A0" to="A6" depart="138"/>
    <trip id="veh_47" type="autonomous" from="L8" to="A6" depart="141"/>
    <trip id="veh_48" type="autonomous" from="L2" to="L7" depart="144"/>
    <trip id="veh_49" type="autonomous" from="L4" to="L7" depart="147"/>
    <trip id="veh_50" type="autonomous" from="L6" to="A1" depart="150"/>
    <trip id="veh_51" type="autonomous" from="L4" to="L1" depart="153"/>
    <trip id="veh_52" type="autonomous" from="A0" to="A6" depart="156"/>
    <trip id="veh_53" type="autonomous" from="A7" to="L3" depart="159"/>
    <trip id="veh_54" type="autonomous" from="L2" to="A1" depart="162"/>
    <trip id="veh_55" type="autonomous" from="A0" to="L9" depart="165"/>
    <trip id="veh_56" type="autonomous" from="L4" to="L9" depart="168"/>
    <trip id="veh_57" type="autonomous" from="L8" to="L5" depart="171"/>
    <trip id="veh_58" type="autonomous" from="A0" to="L11" depart="174"/>
    <trip id="veh_59" type="autonomous" from="L6" to="A6" depart="177"/>
    <trip id="veh_60" type="autonomous" from="L6" to="L11" depart="180"/>
    <trip id="veh_61" type="autonomous" from="L2" to="L11" depart="183"/>
    <trip id="veh_62" type="autonomous" from="L0" to="L7" depart="186"/>
    <trip id="veh_63" type="autonomous" from="A7" to="L5" depart="189"/>
    <trip id="veh_64" type="autonomous" from="L0" to="L7" depart="192"/>
    <trip id="veh_65" type="autonomous" from="L8" to="L3" depart="195"/>
    <trip id="veh_66" type="autonomous" from="A7" to="A1" depart="198"/>
    <trip id="veh_67" type="autonomous" from="L2" to="L9" depart="201"/>
    <trip id="veh_68" type="autonomous" from="A7" to="L9" depart="204"/>
    <trip id="veh_69" type="autonomous" from="L0" to="A1" depart="207"/>
    <trip id="veh_70" type="autonomous" from="L4" to="A6" depart="210"/>
    <trip id="veh_71" type="autonomous" from="A7" to="L3" depart="213"/>
    <trip id="veh_72" type="autonomous" from="L4" to="A6" depart="216"/>
    <trip id="veh_73" type="autonomous" from="L4" to="L3" depart="219"/>
    <trip id="veh_74" type="autonomous" from="L0" to="A1" depart="222"/>
    <trip id="veh_75" type="autonomous" from="L10" to="A6" depart="225"/>
    <trip id="veh_76" type="autonomous" from="L2" to="L5" depart="228"/>
    <trip id="veh_77" type="autonomous" from="L2" to="L9" depart="231"/>
    <trip id="veh_78" type="autonomous" from="L4" to="L1" depart="234"/>
    <trip id="veh_79" type="autonomous" from="A7" to="L11" depart="237"/>
    <trip id="veh_80" type="autonomous" from="L6" to="L5" depart="240"/>
    <trip id="veh_81" type="autonomous" from="L4" to="L1" depart="243"/>
    <trip id="veh_82" type="autonomous" from="L2" to="L7" depart="246"/>
    <trip id="veh_83" type="autonomous" from="L2" to="L1" depart="249"/>
    <trip id="veh_84" type="autonomous" from="L10" to="A6" depart="252"/>
    <trip id="veh_85" type="autonomous" from="L8" to="L11" depart="255"/>
    <trip id="veh_86" type="autonomous" from="L10" to="L1" depart="258"/>
    <trip id="veh_87" type="autonomous" from="L10" to="L9" depart="261"/>
    <trip id="veh_88" type="autonomous" from="A0" to="L7" depart="264"/>
    <trip id="veh_89" type="autonomous" from="A0" to="L5" depart="267"/>
    <trip id="veh_90" type="autonomous" from="A0" to="A6" depart="270"/>
    <trip id="veh_91" type="autonomous" from="L4" to="A1" depart="273"/>
    <trip id="veh_92" type="autonomous" from="L0" to="L5" depart="276"/>
    <trip id="veh_93" type="autonomous" from="L2" to="A6" depart="279"/>
    <trip id="veh_94" type="autonomous" from="L10" to="L5" depart="282"/>
    <trip id="veh_95" type="autonomous" from="A0" to="L5" depart="285"/>
    <trip id="veh_96" type="autonomous" from="L2" to="L5" depart="288"/>
    <trip id="veh_97" type="autonomous" from="L2" to="L7" depart="291"/>
    <trip id="veh_98" type="autonomous" from="L8" to="L1" depart="294"/>
    <trip id="veh_99" type="autonomous" from="A0" to="L1" depart="297"/>
    <trip id="veh_100" type="autonomous" from="L8" to="L11" depart="300"/>
    <trip id="veh_101" type="autonomous" from="A0" to="A6" depart="303"/>
    <trip id="veh_102" type="autonomous" from="L0" to="L9" depart="306"/>
    <trip id="veh_103" type="autonomous" from="L10" to="L3" depart="309"/>
    <trip id="veh_104" type="autonomous" from="L8" to="A1" depart="312"/>
    <trip id="veh_105" type="autonomous" from="A7" to="L5" depart="315"/>
    <trip id="veh_106" type="autonomous" from="A7" to="L5" depart="318"/>
    <trip id="veh_107" type="autonomous" from="L10" to="L5" depart="321"/>
    <trip id="veh_108" type="autonomous" from="L2" to="A1" depart="324"/>
    <trip id="veh_109" type="autonomous" from="A7" to="L1" depart="327"/>
    <trip id="veh_110" type="autonomous" from="L0" to="A1" depart="330"/>
    <trip id="veh_111" type="autonomous" from="A7" to="L3" depart="333"/>
    <trip id="veh_112" type="autonomous" from="L0" to="L7" depart="336"/>
    <trip id="veh_113" type="autonomous" from="L10" to="L1" depart="339"/>
    <trip id="veh_114" type="autonomous" from="L4" to="A1" depart="342"/>
    <trip id="veh_115" type="autonomous" from="L6" to="A1" depart="345"/>
    <trip id="veh_116" type="autonomous" from="L2" to="L1" depart="348"/>
    <trip id="veh_117" type="autonomous" from="A0" to="L7" depart="351"/>
    <trip id="veh_118" type="autonomous" from="L6" to="A1" depart="354"/>
    <trip id="veh_119" type="autonomous" from="L6" to="L3" depart="357"/>
    <trip id="veh_120" type="autonomous" from="L2" to="L11" depart="360"/>
    <trip id="veh_121" type="autonomous" from="L2" to="L5" depart="363"/>
    <trip id="veh_122" type="autonomous" from="L2" to="L7" depart="366"/>
    <trip id="veh_123" type="autonomous" from="L2" to="A6" depart="369"/>
    <trip id="veh_124" type="autonomous" from="L2" to="A1" depart="372"/>
    <trip id="veh_125" type="autonomous" from="L4" to="L3" depart="375"/>
    <trip id="veh_126" type="autonomous" from="L2" to="L1" depart="378"/>
    <trip id="veh_127" type="autonomous" from="L6" to="L5" depart="381"/>
    <trip id="veh_128" type="autonomous" from="L0" to="A1" depart="384"/>
    <trip id="veh_129" type="autonomous" from="L0" to="L5" depart="387"/>
    <trip id="veh_130" type="autonomous" from="L0" to="A6" depart="390"/>
    <trip id="veh_131" type="autonomous" from="A0" to="A6" depart="393"/>
    <trip id="veh_132" type="autonomous" from="A0" to="L7" depart="396"/>
    <trip id="veh_133" type="autonomous" from="L8" to="L3" depart="399"/>
    <trip id="veh_134" type="autonomous" from="L4" to="A1" depart="402"/>
    <trip id="veh_135" type="autonomous" from="A0" to="L5" depart="405"/>
    <trip id="veh_136" type="autonomous" from="L4" to="L3" depart="408"/>
    <trip id="veh_137" type="autonomous" from="L6" to="A6" depart="411"/>
    <trip id="veh_138" type="autonomous" from="A7" to="A1" depart="414"/>
    <trip id="veh_139" type="autonomous" from="L10" to="L9" depart="417"/>
    <trip id="veh_140" type="autonomous" from="L2" to="L11" depart="420"/>
    <trip id="veh_141" type="autonomous" from="L6" to="L3" depart="423"/>
    <trip id="veh_142" type="autonomous" from="L6" to="L9" depart="426"/>
    <trip id="veh_143" type="autonomous" from="L8" to="L11" depart="429"/>
    <trip id="veh_144" type="autonomous" from="A0" to="L5" depart="432"/>
    <trip id="veh_145" type="autonomous" from="L0" to="A6" depart="435"/>
    <trip id="veh_146" type="autonomous" from="L2" to="L7" depart="438"/>
    <trip id="veh_147" type="autonomous" from="L0" to="L5" depart="441"/>
    <trip id="veh_148" type="autonomous" from="L10" to="A1" depart="444"/>
    <trip id="veh_149" type="autonomous" from="A0" to="A6" depart="447"/>
    <trip id="veh_150" type="autonomous" from="L2" to="L5" depart="450"/>
    <trip id="veh_151" type="autonomous" from="L0" to="L3" depart="453"/>
    <trip id="veh_152" type="autonomous" from="L6" to="L5" depart="456"/>
    <trip id="veh_153" type="autonomous" from="L0" to="L5" depart="459"/>
    <trip id="veh_154" type="autonomous" from="L8" to="L3" depart="462"/>
    <trip id="veh_155" type="autonomous" from="A7" to="L7" depart="465"/>
    <trip id="veh_156" type="autonomous" from="L8" to="L5" depart="468"/>
    <trip id="veh_157" type="autonomous" from="L10" to="L3" depart="471"/>
    <trip id="veh_158" type="autonomous" from="L6" to="L1" depart="474"/>
    <trip id="veh_159" type="autonomous" from="A0" to="L3" depart="477"/>
    <trip id="veh_160" type="autonomous" from="L0" to="L5" depart="480"/>
    <trip id="veh_161" type="autonomous" from="A7" to="L11" depart="483"/>
    <trip id="veh_162" type="autonomous" from="L10" to="L1" depart="486"/>
    <trip id="veh_163" type="autonomous" from="L2" to="A1" depart="489"/>
    <trip id="veh_164" type="autonomous" from="L4" to="L3" depart="492"/>
    <trip id="veh_165" type="autonomous" from="L8" to="A6" depart="495"/>
    <trip id="veh_166" type="autonomous" from="A0" to="L11" depart="498"/>
    <trip id="veh_167" type="autonomous" from="L4" to="A6" depart="501"/>
    <trip id="veh_168" type="autonomous" from="L10" to="L3" depart="504"/>
    <trip id="veh_169" type="autonomous" from="A7" to="L3" depart="507"/>
    <trip id="veh_170" type="autonomous" from="L2" to="L11" depart="510"/>
    <trip id="veh_171" type="autonomous" from="A0" to="L5" depart="513"/>
    <trip id="veh_172" type="autonomous" from="A7" to="L1" depart="516"/>
    <trip id="veh_173" type="autonomous" from="L2" to="L1" depart="519"/>
    <trip id="veh_174" type="autonomous" from="L6" to="A1" depart="522"/>
    <trip id="veh_175" type="autonomous" from="L2" to="A1" depart="525"/>
    <trip id="veh_176" type="autonomous" from="L0" to="L7" depart="528"/>
    <trip id="veh_177" type="autonomous" from="L10" to="A1" depart="531"/>
    <trip id="veh_178" type="autonomous" from="L6" to="L5" depart="534"/>
    <trip id="veh_179" type="autonomous" from="A0" to="L5" depart="537"/>
    <trip id="veh_180" type="autonomous" from="L10" to="L3" depart="540"/>
    <trip id="veh_181" type="autonomous" from="L10" to="L1" depart="543"/>
    <trip id="veh_182" type="autonomous" from="L4" to="L1" depart="546"/>
    <trip id="veh_183" type="autonomous" from="L2" to="L1" depart="549"/>
    <trip id="veh_184" type="autonomous" from="A7" to="L11" depart="552"/>
    <trip id="veh_185" type="autonomous" from="L10" to="L9" depart="555"/>
    <trip id="veh_186" type="autonomous" from="L2" to="L7" depart="558"/>
    <trip id="veh_187" type="autonomous" from="A0" to="L5" depart="561"/>
    <trip id="veh_188" type="autonomous" from="A0" to="L9" depart="564"/>
    <trip id="veh_189" type="autonomous" from="L0" to="L5" depart="567"/>
    <trip id="veh_190" type="autonomous" from="L10" to="L9" depart="570"/>
    <trip id="veh_191" type="autonomous" from="L0" to="L3" depart="573"/>
    <trip id="veh_192" type="autonomous" from="A0" to="A6" depart="576"/>
    <trip id="veh_193" type="autonomous" from="A7" to="L5" depart="579"/>
    <trip id="veh_194" type="autonomous" from="A7" to="L1" depart="582"/>
    <trip id="veh_195" type="autonomous" from="L6" to="L11" depart="585"/>
    <trip id="veh_196" type="autonomous" from="A7" to="A1" depart="588"/>
    <trip id="veh_197" type="autonomous" from="A0" to="A6" depart="591"/>
    <trip id="veh_198" type="autonomous" from="L6" to="L5" depart="594"/>
    <trip id="veh_199" type="autonomous" from="L2" to="A1" depart="597"/>
    <trip id="veh_200" type="autonomous" from="L2" to="L5" depart="600"/>
    <trip id="veh_201" type="autonomous" from="A0" to="L1" depart="603"/>
    <trip id="veh_202" type="autonomous" from="L2" to="A1" depart="606"/>
    <trip id="veh_203" type="autonomous" from="L0" to="L5" depart="609"/>
    <trip id="veh_204" type="autonomous" from="A7" to="L9" depart="612"/>
    <trip id="veh_205" type="autonomous" from="A7" to="L3" depart="615"/>
    <trip id="veh_206" type="autonomous" from="A7" to="L11" depart="618"/>
    <trip id="veh_207" type="autonomous" from="L0" to="A6" depart="621"/>
    <trip id="veh_208" type="autonomous" from="L8" to="L3" depart="624"/>
    <trip id="veh_209" type="autonomous" from="A7" to="L11" depart="627"/>
    <trip id="veh_210" type="autonomous" from="L2" to="L11" depart="630"/>
    <trip id="veh_211" type="autonomous" from="L2" to="L9" depart="633"/>
    <trip id="veh_212" type="autonomous" from="L6" to="L11" depart="636"/>
    <trip id="veh_213" type="autonomous" from="L4" to="A1" depart="639"/>
    <trip id="veh_214" type="autonomous" from="L4" to="A1" depart="642"/>
    <trip id="veh_215" type="autonomous" from="A0" to="L9" depart="645"/>
    <trip id="veh_216" type="autonomous" from="L8" to="L3" depart="648"/>
    <trip id="veh_217" type="autonomous" from="L8" to="L1" depart="651"/>
    <trip id="veh_218" type="autonomous" from="L10" to="L5" depart="654"/>
    <trip id="veh_219" type="autonomous" from="L8" to="A6" depart="657"/>
    <trip id="veh_220" type="autonomous" from="A7" to="L3" depart="660"/>
    <trip id="veh_221" type="autonomous" from="A0" to="L1" depart="663"/>
    <trip id="veh_222" type="autonomous" from="L8" to="L5" depart="666"/>
    <trip id="veh_223" type="autonomous" from="L4" to="L7" depart="669"/>
    <trip id="veh_224" type="autonomous" from="L6" to="L11" depart="672"/>
    <trip id="veh_225" type="autonomous" from="L4" to="L11" depart="675"/>
    <trip id="veh_226" type="autonomous" from="L0" to="L5" depart="678"/>
    <trip id="veh_227" type="autonomous" from="A7" to="A1" depart="681"/>
    <trip id="veh_228" type="autonomous" from="L0" to="A1" depart="684"/>
    <trip id="veh_229" type="autonomous" from="A7" to="L1" depart="687"/>
    <trip id="veh_230" type="autonomous" from="A0" to="L1" depart="690"/>
    <trip id="veh_231" type="autonomous" from="L0" to="L5" depart="693"/>
    <trip id="veh_232" type="autonomous" from="A7" to="L9" depart="696"/>
    <trip id="veh_233" type="autonomous" from="L2" to="A6" depart="699"/>
    <trip id="veh_234" type="autonomous" from="L8" to="L3" depart="702"/>
    <trip id="veh_235" type="autonomous" from="L6" to="A1" depart="705"/>
    <trip id="veh_236" type="autonomous" from="L2" to="L5" depart="708"/>
    <trip id="veh_237" type="autonomous" from="L0" to="A6" depart="711"/>
    <trip id="veh_238" type="autonomous" from="L2" to="L5" depart="714"/>
    <trip id="veh_239" type="autonomous" from="L10" to="A1" depart="717"/>
    <trip id="veh_240" type="autonomous" from="A0" to="L1" depart="720"/>
    <trip id="veh_241" type="autonomous" from="L2" to="L11" depart="723"/>
    <trip id="veh_242" type="autonomous" from="L10" to="L3" depart="726"/>
    <trip id="veh_243" type="autonomous" from="L4" to="A6" depart="729"/>
    <trip id="veh_244" type="autonomous" from="L10" to="L7" depart="732"/>
    <trip id="veh_245" type="autonomous" from="L2" to="L5" depart="735"/>
    <trip id="veh_246" type="autonomous" from="A7" to="L5" depart="738"/>
    <trip id="veh_247" type="autonomous" from="L2" to="L1" depart="741"/>
    <trip id="veh_248" type="autonomous" from="A0" to="L1" depart="744"/>
    <trip id="veh_249" type="autonomous" from="L10" to="L7" depart="747"/>
    <trip id="veh_250" type="autonomous" from="L4" to="L1" depart="750"/>
    <trip id="veh_251" type="autonomous" from="L8" to="L3" depart="753"/>
    <trip id="veh_252" type="autonomous" from="L2" to="L11" depart="756"/>
    <trip id="veh_253" type="autonomous" from="L6" to="A1" depart="759"/>
    <trip id="veh_254" type="autonomous" from="L4" to="L3" depart="762"/>
    <trip id="veh_255" type="autonomous" from="A0" to="A6" depart="765"/>
    <trip id="veh_256" type="autonomous" from="L4" to="L3" depart="768"/>
    <trip id="veh_257" type="autonomous" from="L2" to="A6" depart="771"/>
    <trip id="veh_258" type="autonomous" from="L6" to="L3" depart="774"/>
    <trip id="veh_259" type="autonomous" from="A0" to="L3" depart="777"/>
    <trip id="veh_260" type="autonomous" from="A0" to="A6" depart="780"/>
    <trip id="veh_261" type="autonomous" from="L8" to="L1" depart="783"/>
    <trip id="veh_262" type="autonomous" from="L10" to="L1" depart="786"/>
    <trip id="veh_263" type="autonomous" from="A0" to="A6" depart="789"/>
    <trip id="veh_264" type="autonomous" from="A7" to="A1" depart="792"/>
    <trip id="veh_265" type="autonomous" from="L6" to="A1" depart="795"/>
    <trip id="veh_266" type="autonomous" from="L0" to="L3" depart="798"/>
    <trip id="veh_267" type="autonomous" from="L6" to="L11" depart="801"/>
    <trip id="veh_268" type="autonomous" from="A7" to="L7" depart="804"/>
    <trip id="veh_269" type="autonomous" from="L10" to="L3" depart="807"/>
    <trip id="veh_270" type="autonomous" from="A7" to="L3" depart="810"/>
    <trip id="veh_271" type="autonomous" from="A7" to="L1" depart="813"/>
    <trip id="veh_272" type="autonomous" from="A7" to="L9" depart="816"/>
    <trip id="veh_273" type="autonomous" from="L4" to="L1" depart="819"/>
    <trip id="veh_274" type="autonomous" from="A0" to="A6" depart="822"/>
    <trip id="veh_275" type="autonomous" from="L6" to="L9" depart="825"/>
    <trip id="veh_276" type="autonomous" from="A0" to="L3" depart="828"/>
    <trip id="veh_277" type="autonomous" from="L0" to="L3" depart="831"/>
    <trip id="veh_278" type="autonomous" from="L6" to="A6" depart="834"/>
    <trip id="veh_279" type="autonomous" from="L0" to="L7" depart="837"/>
    <trip id="veh_280" type="autonomous" from="L6" to="L11" depart="840"/>
    <trip id="veh_281" type="autonomous" from="L2" to="L9" depart="843"/>
    <trip id="veh_282" type="autonomous" from="L0" to="L3" depart="846"/>
    <trip id="veh_283" type="autonomous" from="L0" to="A6" depart="849"/>
    <trip id="veh_284" type="autonomous" from="L6" to="L5" depart="852"/>
    <trip id="veh_285" type="autonomous" from="L2" to="L9" depart="855"/>
    <trip id="veh_286" type="autonomous" from="L8" to="L3" depart="858"/>
    <trip id="veh_287" type="autonomous" from="L0" to="L3" depart="861"/>
    <trip id="veh_288" type="autonomous" from="L6" to="L11" depart="864"/>
    <trip id="veh_289" type="autonomous" from="L0" to="L7" depart="867"/>
    <trip id="veh_290" type="autonomous" from="L6" to="L9" depart="870"/>
    <trip id="veh_291" type="autonomous" from="L6" to="A1" depart="873"/>
    <trip id="veh_292" type="autonomous" from="L2" to="L9" depart="876"/>
    <trip id="veh_293" type="autonomous" from="A7" to="A1" depart="879"/>
    <trip id="veh_294" type="autonomous" from="L0" to="L11" depart="882"/>
    <trip id="veh_295" type="autonomous" from="L8" to="L11" depart="885"/>
    <trip id="veh_296" type="autonomous" from="A7" to="L11" depart="888"/>
    <trip id="veh_297" type="autonomous" from="L10" to="L7" depart="891"/>
    <trip id="veh_298" type="autonomous" from="L2" to="L9" depart="894"/>
    <trip id="veh_299" type="autonomous" from="L0" to="L11" depart="897"/>
    <trip id="veh_300" type="autonomous" from="L2" to="L1" depart="900"/>
    <trip id="veh_301" type="autonomous" from="L0" to="A1" depart="903"/>
    <trip id="veh_302" type="autonomous" from="L4" to="L7" depart="906"/>
    <trip id="veh_303" type="autonomous" from="A0" to="L1" depart="909"/>
    <trip id="veh_304" type="autonomous" from="A0" to="L5" depart="912"/>
    <trip id="veh_305" type="autonomous" from="L6" to="L1" depart="915"/>
    <trip id="veh_306" type="autonomous" from="L6" to="A6" depart="918"/>
    <trip id="veh_307" type="autonomous" from="L4" to="L7" depart="921"/>
    <trip id="veh_308" type="autonomous" from="A0" to="L7" depart="924"/>
    <trip id="veh_309" type="autonomous" from="L10" to="L5" depart="927"/>
    <trip id="veh_310" type="autonomous" from="A7" to="L1" depart="930"/>
    <trip id="veh_311" type="autonomous" from="A7" to="L11" depart="933"/>
    <trip id="veh_312" type="autonomous" from="L4" to="L7" depart="936"/>
    <trip id="veh_313" type="autonomous" from="L8" to="A6" depart="939"/>
    <trip id="veh_314" type="autonomous" from="L0" to="L11" depart="942"/>
    <trip id="veh_315" type="autonomous" from="L10" to="A1" depart="945"/>
    <trip id="veh_316" type="autonomous" from="L0" to="L3" depart="948"/>
    <trip id="veh_317" type="autonomous" from="L6" to="L3" depart="951"/>
    <trip id="veh_318" type="autonomous" from="L4" to="L1" depart="954"/>
    <trip id="veh_319" type="autonomous" from="L6" to="L5" depart="957"/>
    <trip id="veh_320" type="autonomous" from="L10" to="L3" depart="960"/>
    <trip id="veh_321" type="autonomous" from="L2" to="L11" depart="963"/>
    <trip id="veh_322" type="autonomous" from="L2" to="L7" depart="966"/>
    <trip id="veh_323" type="autonomous" from="L2" to="L11" depart="969"/>
    <trip id="veh_324" type="autonomous" from="L4" to="L7" depart="972"/>
    <trip id="veh_325" type="autonomous" from="L8" to="A1" depart="975"/>
    <trip id="veh_326" type="autonomous" from="L10" to="L5" depart="978"/>
    <trip id="veh_327" type="autonomous" from="L0" to="L9" depart="981"/>
    <trip id="veh_328" type="autonomous" from="L10" to="L3" depart="984"/>
    <trip id="veh_329" type="autonomous" from="L4" to="A6" depart="987"/>
    <trip id="veh_330" type="autonomous" from="L8" to="L11" depart="990"/>
    <trip id="veh_331" type="autonomous" from="L4" to="L3" depart="993"/>
    <trip id="veh_332" type="autonomous" from="A7" to="A1" depart="996"/>
    <trip id="veh_333" type="autonomous" from="L10" to="A1" depart="999"/>
    <trip id="veh_334" type="autonomous" from="L8" to="L7" depart="1002"/>
    <trip id="veh_335" type="autonomous" from="L6" to="L1" depart="1005"/>
    <trip id="veh_336" type="autonomous" from="L6" to="A6" depart="1008"/>
    <trip id="veh_337" type="autonomous" from="A0" to="L7" depart="1011"/>
    <trip id="veh_338" type="autonomous" from="L8" to="A6" depart="1014"/>
    <trip id="veh_339" type="autonomous" from="L6" to="L9" depart="1017"/>
    <trip id="veh_340" type="autonomous" from="L0" to="L9" depart="1020"/>
    <trip id="veh_341" type="autonomous" from="A7" to="L1" depart="1023"/>
    <trip id="veh_342" type="autonomous" from="L10" to="A6" depart="1026"/>
    <trip id="veh_343" type="autonomous" from="L2" to="L11" depart="1029"/>
    <trip id="veh_344" type="autonomous" from="L6" to="L3" depart="1032"/>
    <trip id="veh_345" type="autonomous" from="A7" to="L1" depart="1035"/>
    <trip id="veh_346" type="autonomous" from="L0" to="A1" depart="1038"/>
    <trip id="veh_347" type="autonomous" from="L4" to="L7" depart="1041"/>
    <trip id="veh_348" type="autonomous" from="L8" to="A6" depart="1044"/>
    <trip id="veh_349" type="autonomous" from="L4" to="L11" depart="1047"/>
    <trip id="veh_350" type="autonomous" from="L0" to="L3" depart="1050"/>
    <trip id="veh_351" type="autonomous" from="L10" to="L7" depart="1053"/>
    <trip id="veh_352" type="autonomous" from="L8" to="L3" depart="1056"/>
    <trip id="veh_353" type="autonomous" from="L4" to="A6" depart="1059"/>
    <trip id="veh_354" type="autonomous" from="A0" to="A6" depart="1062"/>
    <trip id="veh_355" type="autonomous" from="L2" to="L5" depart="1065"/>
    <trip id="veh_356" type="autonomous" from="L10" to="L9" depart="1068"/>
    <trip id="veh_357" type="autonomous" from="L8" to="L5" depart="1071"/>
    <trip id="veh_358" type="autonomous" from="L10" to="A6" depart="1074"/>
    <trip id="veh_359" type="autonomous" from="L0" to="L3" depart="1077"/>
    <trip id="veh_360" type="autonomous" from="L2" to="L9" depart="1080"/>
    <trip id="veh_361" type="autonomous" from="L8" to="L7" depart="1083"/>
    <trip id="veh_362" type="autonomous" from="A0" to="L11" depart="1086"/>
    <trip id="veh_363" type="autonomous" from="A0" to="A6" depart="1089"/>
    <trip id="veh_364" type="autonomous" from="L8" to="A1" depart="1092"/>
    <trip id="veh_365" type="autonomous" from="A0" to="L3" depart="1095"/>
    <trip id="veh_366" type="autonomous" from="L6" to="L1" depart="1098"/>
    <trip id="veh_367" type="autonomous" from="L8" to="A1" depart="1101"/>
    <trip id="veh_368" type="autonomous" from="A7" to="L1" depart="1104"/>
    <trip id="veh_369" type="autonomous" from="L10" to="A1" depart="1107"/>
    <trip id="veh_370" type="autonomous" from="L8" to="L5" depart="1110"/>
    <trip id="veh_371" type="autonomous" from="L4" to="L7" depart="1113"/>
    <trip id="veh_372" type="autonomous" from="L0" to="L11" depart="1116"/>
    <trip id="veh_373" type="autonomous" from="L2" to="L9" depart="1119"/>
    <trip id="veh_374" type="autonomous" from="L6" to="L5" depart="1122"/>
    <trip id="veh_375" type="autonomous" from="L0" to="L9" depart="1125"/>
    <trip id="veh_376" type="autonomous" from="L6" to="L11" depart="1128"/>
    <trip id="veh_377" type="autonomous" from="L10" to="A6" depart="1131"/>
    <trip id="veh_378" type="autonomous" from="A7" to="L11" depart="1134"/>
    <trip id="veh_379" type="autonomous" from="L10" to="L5" depart="1137"/>
    <trip id="veh_380" type="autonomous" from="A0" to="L7" depart="1140"/>
    <trip id="veh_381" type="autonomous" from="L2" to="A6" depart="1143"/>
    <trip id="veh_382" type="autonomous" from="A0" to="A6" depart="1146"/>
    <trip id="veh_383" type="autonomous" from="L10" to="A6" depart="1149"/>
    <trip id="veh_384" type="autonomous" from="A7" to="L1" depart="1152"/>
    <trip id="veh_385" type="autonomous" from="L8" to="A1" depart="1155"/>
    <trip id="veh_386" type="autonomous" from="A7" to="L3" depart="1158"/>
    <trip id="veh_387" type="autonomous" from="L0" to="A6" depart="1161"/>
    <trip id="veh_388" type="autonomous" from="A0" to="L1" depart="1164"/>
    <trip id="veh_389" type="autonomous" from="L2" to="L5" depart="1167"/>
    <trip id="veh_390" type="autonomous" from="L10" to="A6" depart="1170"/>
    <trip id="veh_391" type="autonomous" from="L4" to="A6" depart="1173"/>
    <trip id="veh_392" type="autonomous" from="L6" to="L9" depart="1176"/>
    <trip id="veh_393" type="autonomous" from="L8" to="L3" depart="1179"/>
    <trip id="veh_394" type="autonomous" from="L10" to="L7" depart="1182"/>