<?xml version="1.0" encoding="UTF-8"?>

<!-- generated on 2024-03-27 22:56:00 by Eclipse SUMO duarouter Version 1.19.0
<configuration xmlns:xsi="http://www.w3.org/2001/XMLSchema-instance" xsi:noNamespaceSchemaLocation="http://sumo.dlr.de/xsd/duarouterConfiguration.xsd">

    <input>
        <net-file value="tJunction.net.xml"/>
        <route-files value="tJunction.trips.xml"/>
    </input>

    <output>
        <output-file value="tJunction.rou.xml"/>
    </output>

</configuration>
-->

<routes xmlns:xsi="http://www.w3.org/2001/XMLSchema-instance" xsi:noNamespaceSchemaLocation="http://sumo.dlr.de/xsd/routes_file.xsd">
    <vType id="autonomous" length="5.00" maxSpeed="33.33" guiShape="passenger" color="green" lcStrategic="5.0" lcCooperative="5.0" lcSpeedGain="5.0" lcKeepRight="1.0" carFollowModel="Krauss" accel="2.6" decel="4.5" sigma="0.0"/>
    <vehicle id="veh_0" type="autonomous" depart="0.00">
        <route edges="L6 A3 L3"/>
    </vehicle>
    <vehicle id="veh_1" type="autonomous" depart="3.00">
        <route edges="L6 L5"/>
    </vehicle>
    <vehicle id="veh_2" type="autonomous" depart="6.00">
        <route edges="L6 A4 L9"/>
    </vehicle>
    <vehicle id="veh_3" type="autonomous" depart="9.00">
        <route edges="L4 A4 L9"/>
    </vehicle>
    <vehicle id="veh_4" type="autonomous" depart="12.00">
        <route edges="A7 L9"/>
    </vehicle>
    <vehicle id="veh_5" type="autonomous" depart="15.00">
        <route edges="L8 A6"/>
    </vehicle>
    <vehicle id="veh_6" type="autonomous" depart="18.00">
        <route edges="L6 A3 L3"/>
    </vehicle>
    <vehicle id="veh_7" type="autonomous" depart="21.00">
        <route edges="L6 A4 L9"/>
    </vehicle>
    <vehicle id="veh_8" type="autonomous" depart="24.00">
        <route edges="L10 A5 A3 L1"/>
    </vehicle>
    <vehicle id="veh_9" type="autonomous" depart="27.00">
        <route edges="A7 A5 A3 L1"/>
    </vehicle>
    <vehicle id="veh_10" type="autonomous" depart="30.00">
        <route edges="L0 A2 L7"/>
    </vehicle>
    <vehicle id="veh_11" type="autonomous" depart="33.00">
        <route edges="L4 A4 A6"/>
    </vehicle>
    <vehicle id="veh_12" type="autonomous" depart="36.00">
        <route edges="L2 L1"/>
    </vehicle>
    <vehicle id="veh_13" type="autonomous" depart="39.00">
        <route edges="L0 L3"/>
    </vehicle>
    <vehicle id="veh_14" type="autonomous" depart="42.00">
        <route edges="L8 A5 A3 A1"/>
    </vehicle>
    <vehicle id="veh_15" type="autonomous" depart="45.00">
        <route edges="L2 A2 A4 L11"/>
    </vehicle>
    <vehicle id="veh_16" type="autonomous" depart="48.00">
        <route edges="L0 L3"/>
    </vehicle>
    <vehicle id="veh_17" type="autonomous" depart="51.00">
        <route edges="L8 A6"/>
    </vehicle>
    <vehicle id="veh_18" type="autonomous" depart="54.00">
        <route edges="L4 A4 L9"/>
    </vehicle>
    <vehicle id="veh_19" type="autonomous" depart="57.00">
        <route edges="L6 A3 A1"/>
    </vehicle>
    <vehicle id="veh_20" type="autonomous" depart="60.00">
        <route edges="A0 A2 A4 L11"/>
    </vehicle>
    <vehicle id="veh_21" type="autonomous" depart="63.00">
        <route edges="A7 A5 L7"/>
    </vehicle>
    <vehicle id="veh_22" type="autonomous" depart="66.00">
        <route edges="A7 A5 A3 L3"/>
    </vehicle>
    <vehicle id="veh_23" type="autonomous" depart="69.00">
        <route edges="A0 L1"/>
    </vehicle>
    <vehicle id="veh_24" type="autonomous" depart="72.00">
        <route edges="L10 A5 L7"/>
    </vehicle>
    <vehicle id="veh_25" type="autonomous" depart="75.00">
        <route edges="L2 A2 L5"/>
    </vehicle>
    <vehicle id="veh_26" type="autonomous" depart="78.00">
        <route edges="L10 A5 L5"/>
    </vehicle>
    <vehicle id="veh_27" type="autonomous" depart="81.00">
        <route edges="L0 A2 A4 L9"/>
    </vehicle>
    <vehicle id="veh_28" type="autonomous" depart="84.00">
        <route edges="L10 A6"/>
    </vehicle>
    <vehicle id="veh_29" type="autonomous" depart="87.00">
        <route edges="L10 A5 L5"/>
    </vehicle>
    <vehicle id="veh_30" type="autonomous" depart="90.00">
        <route edges="L10 A5 A3 L1"/>
    </vehicle>
    <vehicle id="veh_31" type="autonomous" depart="93.00">
        <route edges="A0 L3"/>
    </vehicle>
    <vehicle id="veh_32" type="autonomous" depart="96.00">
        <route edges="L8 A5 A3 A1"/>
    </vehicle>
    <vehicle id="veh_33" type="autonomous" depart="99.00">
        <route edges="L8 A5 L7"/>
    </vehicle>
    <vehicle id="veh_34" type="autonomous" depart="102.00">
        <route edges="L2 A2 A4 L11"/>
    </vehicle>
    <vehicle id="veh_35" type="autonomous" depart="105.00">
        <route edges="L10 A5 L7"/>
    </vehicle>
    <vehicle id="veh_36" type="autonomous" depart="108.00">
        <route edges="A0 A2 A4 L11"/>
    </vehicle>
    <vehicle id="veh_37" type="autonomous" depart="111.00">
        <route edges="L0 L3"/>
    </vehicle>
    <vehicle id="veh_38" type="autonomous" depart="114.00">
        <route edges="A0 A2 A4 L9"/>
    </vehicle>
    <vehicle id="veh_39" type="autonomous" depart="117.00">
        <route edges="L8 A6"/>
    </vehicle>
    <vehicle id="veh_40" type="autonomous" depart="120.00">
        <route edges="A7 L11"/>
    </vehicle>
    <vehicle id="veh_41" type="autonomous" depart="123.00">
        <route edges="A0 A2 L7"/>
    </vehicle>
    <vehicle id="veh_42" type="autonomous" depart="126.00">
        <route edges="L4 A3 A1"/>
    </vehicle>
    <vehicle id="veh_43" type="autonomous" depart="129.00">
        <route edges="L4 A4 A6"/>
    </vehicle>
    <vehicle id="veh_44" type="autonomous" depart="132.00">
        <route edges="A7 A5 L5"/>
    </vehicle>
    <vehicle id="veh_45" type="autonomous" depart="135.00">
        <route edges="L2 A2 L5"/>
    </vehicle>
    <vehicle id="veh_46" type="autonomous" depart="138.00">
        <route edges="A0 A2 A4 A6"/>
    </vehicle>
    <vehicle id="veh_47" type="autonomous" depart="141.00">
        <route edges="L8 A6"/>
    </vehicle>
    <vehicle id="veh_48" type="autonomous" depart="144.00">
        <route edges="L2 A2 L7"/>
    </vehicle>
    <vehicle id="veh_49" type="autonomous" depart="147.00">
        <route edges="L4 L7"/>
    </vehicle>
    <vehicle id="veh_50" type="autonomous" depart="150.00">
        <route edges="L6 A3 A1"/>
    </vehicle>
    <vehicle id="veh_51" type="autonomous" depart="153.00">
        <route edges="L4 A3 L1"/>
    </vehicle>
    <vehicle id="veh_52" type="autonomous" depart="156.00">
        <route edges="A0 A2 A4 A6"/>
    </vehicle>
    <vehicle id="veh_53" type="autonomous" depart="159.00">
        <route edges="A7 A5 A3 L3"/>
    </vehicle>
    <vehicle id="veh_54" type="autonomous" depart="162.00">
        <route edges="L2 A1"/>
    </vehicle>
    <vehicle id="veh_55" type="autonomous" depart="165.00">
        <route edges="A0 A2 A4 L9"/>
    </vehicle>
    <vehicle id="veh_56" type="autonomous" depart="168.00">
        <route edges="L4 A4 L9"/>
    </vehicle>
    <vehicle id="veh_57" type="autonomous" depart="171.00">
        <route edges="L8 A5 L5"/>
    </vehicle>
    <vehicle id="veh_58" type="autonomous" depart="174.00">
        <route edges="A0 A2 A4 L11"/>
    </vehicle>
    <vehicle id="veh_59" type="autonomous" depart="177.00">
        <route edges="L6 A4 A6"/>
    </vehicle>
    <vehicle id="veh_60" type="autonomous" depart="180.00">
        <route edges="L6 A4 L11"/>
    </vehicle>
    <vehicle id="veh_61" type="autonomous" depart="183.00">
        <route edges="L2 A2 A4 L11"/>
    </vehicle>
    <vehicle id="veh_62" type="autonomous" depart="186.00">
        <route edges="L0 A2 L7"/>
    </vehicle>
    <vehicle id="veh_63" type="autonomous" depart="189.00">
        <route edges="A7 A5 L5"/>
    </vehicle>
    <vehicle id="veh_64" type="autonomous" depart="192.00">
        <route edges="L0 A2 L7"/>
    </vehicle>
    <vehicle id="veh_65" type="autonomous" depart="195.00">
        <route edges="L8 A5 A3 L3"/>
    </vehicle>
    <vehicle id="veh_66" type="autonomous" depart="198.00">
        <route edges="A7 A5 A3 A1"/>
    </vehicle>
    <vehicle id="veh_67" type="autonomous" depart="201.00">
        <route edges="L2 A2 A4 L9"/>
    </vehicle>
    <vehicle id="veh_68" type="autonomous" depart="204.00">
        <route edges="A7 L9"/>
    </vehicle>
    <vehicle id="veh_69" type="autonomous" depart="207.00">
        <route edges="L0 A1"/>
    </vehicle>
    <vehicle id="veh_70" type="autonomous" depart="210.00">
        <route edges="L4 A4 A6"/>
    </vehicle>
    <vehicle id="veh_71" type="autonomous" depart="213.00">
        <route edges="A7 A5 A3 L3"/>
    </vehicle>
    <vehicle id="veh_72" type="autonomous" depart="216.00">
        <route edges="L4 A4 A6"/>
    </vehicle>
    <vehicle id="veh_73" type="autonomous" depart="219.00">
        <route edges="L4 A3 L3"/>
    </vehicle>
    <vehicle id="veh_74" type="autonomous" depart="222.00">
        <route edges="L0 A1"/>
    </vehicle>
    <vehicle id="veh_75" type="autonomous" depart="225.00">
        <route edges="L10 A6"/>
    </vehicle>
    <vehicle id="veh_76" type="autonomous" depart="228.00">
        <route edges="L2 A2 L5"/>
    </vehicle>
    <vehicle id="veh_77" type="autonomous" depart="231.00">
        <route edges="L2 A2 A4 L9"/>
    </vehicle>
    <vehicle id="veh_78" type="autonomous" depart="234.00">
        <route edges="L4 A3 L1"/>
    </vehicle>
    <vehicle id="veh_79" type="autonomous" depart="237.00">
        <route edges="A7 L11"/>
    </vehicle>
    <vehicle id="veh_80" type="autonomous" depart="240.00">
        <route edges="L6 L5"/>
    </vehicle>
    <vehicle id="veh_81" type="autonomous" depart="243.00">
        <route edges="L4 A3 L1"/>
    </vehicle>
    <vehicle id="veh_82" type="autonomous" depart="246.00">
        <route edges="L2 A2 L7"/>
    </vehicle>
    <vehicle id="veh_83" type="autonomous" depart="249.00">
        <route edges="L2 L1"/>
    </vehicle>
    <vehicle id="veh_84" type="autonomous" depart="252.00">
        <route edges="L10 A6"/>
    </vehicle>
    <vehicle id="veh_85" type="autonomous" depart="255.00">
        <route edges="L8 L11"/>
    </vehicle>
    <vehicle id="veh_86" type="autonomous" depart="258.00">
        <route edges="L10 A5 A3 L1"/>
    </vehicle>
    <vehicle id="veh_87" type="autonomous" depart="261.00">
        <route edges="L10 L9"/>
    </vehicle>
    <vehicle id="veh_88" type="autonomous" depart="264.00">
        <route edges="A0 A2 L7"/>
    </vehicle>
    <vehicle id="veh_89" type="autonomous" depart="267.00">
        <route edges="A0 A2 L5"/>
    </vehicle>
    <vehicle id="veh_90" type="autonomous" depart="270.00">
        <route edges="A0 A2 A4 A6"/>
    </vehicle>
    <vehicle id="veh_91" type="autonomous" depart="273.00">
        <route edges="L4 A3 A1"/>
    </vehicle>
    <vehicle id="veh_92" type="autonomous" depart="276.00">
        <route edges="L0 A2 L5"/>
    </vehicle>
    <vehicle id="veh_93" type="autonomous" depart="279.00">
        <route edges="L2 A2 A4 A6"/>
    </vehicle>
    <vehicle id="veh_94" type="autonomous" depart="282.00">
        <route edges="L10 A5 L5"/>
    </vehicle>
    <vehicle id="veh_95" type="autonomous" depart="285.00">
        <route edges="A0 A2 L5"/>
    </vehicle>
    <vehicle id="veh_96" type="autonomous" depart="288.00">
        <route edges="L2 A2 L5"/>
    </vehicle>
    <vehicle id="veh_97" type="autonomous" depart="291.00">
        <route edges="L2 A2 L7"/>
    </vehicle>
    <vehicle id="veh_98" type="autonomous" depart="294.00">
        <route edges="L8 A5 A3 L1"/>
    </vehicle>
    <vehicle id="veh_99" type="autonomous" depart="297.00">
        <route edges="A0 L1"/>
    </vehicle>
    <vehicle id="veh_100" type="autonomous" depart="300.00">
        <route edges="L8 L11"/>
    </vehicle>
    <vehicle id="veh_101" type="autonomous" depart="303.00">
        <route edges="A0 A2 A4 A6"/>
    </vehicle>
    <vehicle id="veh_102" type="autonomous" depart="306.00">
        <route edges="L0 A2 A4 L9"/>
    </vehicle>
    <vehicle id="veh_103" type="autonomous" depart="309.00">
        <route edges="L10 A5 A3 L3"/>
    </vehicle>
    <vehicle id="veh_104" type="autonomous" depart="312.00">
        <route edges="L8 A5 A3 A1"/>
    </vehicle>
    <vehicle id="veh_105" type="autonomous" depart="315.00">
        <route edges="A7 A5 L5"/>
    </vehicle>
    <vehicle id="veh_106" type="autonomous" depart="318.00">
        <route edges="A7 A5 L5"/>
    </vehicle>
    <vehicle id="veh_107" type="autonomous" depart="321.00">
        <route edges="L10 A5 L5"/>
    </vehicle>
    <vehicle id="veh_108" type="autonomous" depart="324.00">
        <route edges="L2 A1"/>
    </vehicle>
    <vehicle id="veh_109" type="autonomous" depart="327.00">
        <route edges="A7 A5 A3 L1"/>
    </vehicle>
    <vehicle id="veh_110" type="autonomous" depart="330.00">
        <route edges="L0 A1"/>
    </vehicle>
    <vehicle id="veh_111" type="autonomous" depart="333.00">
        <route edges="A7 A5 A3 L3"/>
    </vehicle>
    <vehicle id="veh_112" type="autonomous" depart="336.00">
        <route edges="L0 A2 L7"/>
    </vehicle>
    <vehicle id="veh_113" type="autonomous" depart="339.00">
        <route edges="L10 A5 A3 L1"/>
    </vehicle>
    <vehicle id="veh_114" type="autonomous" depart="342.00">
        <route edges="L4 A3 A1"/>
    </vehicle>
    <vehicle id="veh_115" type="autonomous" depart="345.00">
        <route edges="L6 A3 A1"/>
    </vehicle>
    <vehicle id="veh_116" type="autonomous" depart="348.00">
        <route edges="L2 L1"/>
    </vehicle>
    <vehicle id="veh_117" type="autonomous" depart="351.00">
        <route edges="A0 A2 L7"/>
    </vehicle>
    <vehicle id="veh_118" type="autonomous" depart="354.00">
        <route edges="L6 A3 A1"/>
    </vehicle>
    <vehicle id="veh_119" type="autonomous" depart="357.00">
        <route edges="L6 A3 L3"/>
    </vehicle>
    <vehicle id="veh_120" type="autonomous" depart="360.00">
        <route edges="L2 A2 A4 L11"/>
    </vehicle>
    <vehicle id="veh_121" type="autonomous" depart="363.00">
        <route edges="L2 A2 L5"/>
    </vehicle>
    <vehicle id="veh_122" type="autonomous" depart="366.00">
        <route edges="L2 A2 L7"/>
    </vehicle>
    <vehicle id="veh_123" type="autonomous" depart="369.00">
        <route edges="L2 A2 A4 A6"/>
    </vehicle>
    <vehicle id="veh_124" type="autonomous" depart="372.00">
        <route edges="L2 A1"/>
    </vehicle>
    <vehicle id="veh_125" type="autonomous" depart="375.00">
        <route edges="L4 A3 L3"/>
    </vehicle>
    <vehicle id="veh_126" type="autonomous" depart="378.00">
        <route edges="L2 L1"/>
    </vehicle>
    <vehicle id="veh_127" type="autonomous" depart="381.00">
        <route edges="L6 L5"/>
    </vehicle>
    <vehicle id="veh_128" type="autonomous" depart="384.00">
        <route edges="L0 A1"/>
    </vehicle>
    <vehicle id="veh_129" type="autonomous" depart="387.00">
        <route edges="L0 A2 L5"/>
    </vehicle>
    <vehicle id="veh_130" type="autonomous" depart="390.00">
        <route edges="L0 A2 A4 A6"/>
    </vehicle>
    <vehicle id="veh_131" type="autonomous" depart="393.00">
        <route edges="A0 A2 A4 A6"/>
    </vehicle>
    <vehicle id="veh_132" type="autonomous" depart="396.00">
        <route edges="A0 A2 L7"/>
    </vehicle>
    <vehicle id="veh_133" type="autonomous" depart="399.00">
        <route edges="L8 A5 A3 L3"/>
    </vehicle>
    <vehicle id="veh_134" type="autonomous" depart="402.00">
        <route edges="L4 A3 A1"/>
    </vehicle>
    <vehicle id="veh_135" type="autonomous" depart="405.00">
        <route edges="A0 A2 L5"/>
    </vehicle>
    <vehicle id="veh_136" type="autonomous" depart="408.00">
        <route edges="L4 A3 L3"/>
    </vehicle>
    <vehicle id="veh_137" type="autonomous" depart="411.00">
        <route edges="L6 A4 A6"/>
    </vehicle>
    <vehicle id="veh_138" type="autonomous" depart="414.00">
        <route edges="A7 A5 A3 A1"/>
    </vehicle>
    <vehicle id="veh_139" type="autonomous" depart="417.00">
        <route edges="L10 L9"/>
    </vehicle>
    <vehicle id="veh_140" type="autonomous" depart="420.00">
        <route edges="L2 A2 A4 L11"/>
    </vehicle>
    <vehicle id="veh_141" type="autonomous" depart="423.00">
        <route edges="L6 A3 L3"/>
    </vehicle>
    <vehicle id="veh_142" type="autonomous" depart="426.00">
        <route edges="L6 A4 L9"/>
    </vehicle>
    <vehicle id="veh_143" type="autonomous" depart="429.00">
        <route edges="L8 L11"/>
    </vehicle>
    <vehicle id="veh_144" type="autonomous" depart="432.00">
        <route edges="A0 A2 L5"/>
    </vehicle>
    <vehicle id="veh_145" type="autonomous" depart="435.00">
        <route edges="L0 A2 A4 A6"/>
    </vehicle>
    <vehicle id="veh_146" type="autonomous" depart="438.00">
        <route edges="L2 A2 L7"/>
    </vehicle>
    <vehicle id="veh_147" type="autonomous" depart="441.00">
        <route edges="L0 A2 L5"/>
    </vehicle>
    <vehicle id="veh_148" type="autonomous" depart="444.00">
        <route edges="L10 A5 A3 A1"/>
    </vehicle>
    <vehicle id="veh_149" type="autonomous" depart="447.00">
        <route edges="A0 A2 A4 A6"/>
    </vehicle>
    <vehicle id="veh_150" type="autonomous" depart="450.00">
        <route edges="L2 A2 L5"/>
    </vehicle>
    <vehicle id="veh_151" type="autonomous" depart="453.00">
        <route edges="L0 L3"/>
    </vehicle>
    <vehicle id="veh_152" type="autonomous" depart="456.00">
        <route edges="L6 L5"/>
    </vehicle>
    <vehicle id="veh_153" type="autonomous" depart="459.00">
        <route edges="L0 A2 L5"/>
    </vehicle>
    <vehicle id="veh_154" type="autonomous" depart="462.00">
        <route edges="L8 A5 A3 L3"/>
    </vehicle>
    <vehicle id="veh_155" type="autonomous" depart="465.00">
        <route edges="A7 A5 L7"/>
    </vehicle>
    <vehicle id="veh_156" type="autonomous" depart="468.00">
        <route edges="L8 A5 L5"/>
    </vehicle>
    <vehicle id="veh_157" type="autonomous" depart="471.00">
        <route edges="L10 A5 A3 L3"/>
    </vehicle>
    <vehicle id="veh_158" type="autonomous" depart="474.00">
        <route edges="L6 A3 L1"/>
    </vehicle>
    <vehicle id="veh_159" type="autonomous" depart="477.00">
        <route edges="A0 L3"/>
    </vehicle>
    <vehicle id="veh_160" type="autonomous" depart="480.00">
        <route edges="L0 A2 L5"/>
    </vehicle>
    <vehicle id="veh_161" type="autonomous" depart="483.00">
        <route edges="A7 L11"/>
    </vehicle>
    <vehicle id="veh_162" type="autonomous" depart="486.00">
        <route edges="L10 A5 A3 L1"/>
    </vehicle>
    <vehicle id="veh_163" type="autonomous" depart="489.00">
        <route edges="L2 A1"/>
    </vehicle>
    <vehicle id="veh_164" type="autonomous" depart="492.00">
        <route edges="L4 A3 L3"/>
    </vehicle>
    <vehicle id="veh_165" type="autonomous" depart="495.00">
        <route edges="L8 A6"/>
    </vehicle>
    <vehicle id="veh_166" type="autonomous" depart="498.00">
        <route edges="A0 A2 A4 L11"/>
    </vehicle>
    <vehicle id="veh_167" type="autonomous" depart="501.00">
        <route edges="L4 A4 A6"/>
    </vehicle>
    <vehicle id="veh_168" type="autonomous" depart="504.00">
        <route edges="L10 A5 A3 L3"/>
    </vehicle>
    <vehicle id="veh_169" type="autonomous" depart="507.00">
        <route edges="A7 A5 A3 L3"/>
    </vehicle>
    <vehicle id="veh_170" type="autonomous" depart="510.00">
        <route edges="L2 A2 A4 L11"/>
    </vehicle>
    <vehicle id="veh_171" type="autonomous" depart="513.00">
        <route edges="A0 A2 L5"/>
    </vehicle>
    <vehicle id="veh_172" type="autonomous" depart="516.00">
        <route edges="A7 A5 A3 L1"/>
    </vehicle>
    <vehicle id="veh_173" type="autonomous" depart="519.00">
        <route edges="L2 L1"/>
    </vehicle>
    <vehicle id="veh_174" type="autonomous" depart="522.00">
        <route edges="L6 A3 A1"/>
    </vehicle>
    <vehicle id="veh_175" type="autonomous" depart="525.00">
        <route edges="L2 A1"/>
    </vehicle>
    <vehicle id="veh_176" type="autonomous" depart="528.00">
        <route edges="L0 A2 L7"/>
    </vehicle>
    <vehicle id="veh_177" type="autonomous" depart="531.00">
        <route edges="L10 A5 A3 A1"/>
    </vehicle>
    <vehicle id="veh_178" type="autonomous" depart="534.00">
        <route edges="L6 L5"/>
    </vehicle>
    <vehicle id="veh_179" type="autonomous" depart="537.00">
        <route edges="A0 A2 L5"/>
    </vehicle>
    <vehicle id="veh_180" type="autonomous" depart="540.00">
        <route edges="L10 A5 A3 L3"/>
    </vehicle>
    <vehicle id="veh_181" type="autonomous" depart="543.00">
        <route edges="L10 A5 A3 L1"/>
    </vehicle>
    <vehicle id="veh_182" type="autonomous" depart="546.00">
        <route edges="L4 A3 L1"/>
    </vehicle>
    <vehicle id="veh_183" type="autonomous" depart="549.00">
        <route edges="L2 L1"/>
    </vehicle>
    <vehicle id="veh_184" type="autonomous" depart="552.00">
        <route edges="A7 L11"/>
    </vehicle>
    <vehicle id="veh_185" type="autonomous" depart="555.00">
        <route edges="L10 L9"/>
    </vehicle>
    <vehicle id="veh_186" type="autonomous" depart="558.00">
        <route edges="L2 A2 L7"/>
    </vehicle>
    <vehicle id="veh_187" type="autonomous" depart="561.00">
        <route edges="A0 A2 L5"/>
    </vehicle>
    <vehicle id="veh_188" type="autonomous" depart="564.00">
        <route edges="A0 A2 A4 L9"/>
    </vehicle>
    <vehicle id="veh_189" type="autonomous" depart="567.00">
        <route edges="L0 A2 L5"/>
    </vehicle>
    <vehicle id="veh_190" type="autonomous" depart="570.00">
        <route edges="L10 L9"/>
    </vehicle>
    <vehicle id="veh_191" type="autonomous" depart="573.00">
        <route edges="L0 L3"/>
    </vehicle>
    <vehicle id="veh_192" type="autonomous" depart="576.00">
        <route edges="A0 A2 A4 A6"/>
    </vehicle>
    <vehicle id="veh_193" type="autonomous" depart="579.00">
        <route edges="A7 A5 L5"/>
    </vehicle>
    <vehicle id="veh_194" type="autonomous" depart="582.00">
        <route edges="A7 A5 A3 L1"/>
    </vehicle>
    <vehicle id="veh_195" type="autonomous" depart="585.00">
        <route edges="L6 A4 L11"/>
    </vehicle>
    <vehicle id="veh_196" type="autonomous" depart="588.00">
        <route edges="A7 A5 A3 A1"/>
    </vehicle>
    <vehicle id="veh_197" type="autonomous" depart="591.00">
        <route edges="A0 A2 A4 A6"/>
    </vehicle>
    <vehicle id="veh_198" type="autonomous" depart="594.00">
        <route edges="L6 L5"/>
    </vehicle>
    <vehicle id="veh_199" type="autonomous" depart="597.00">
        <route edges="L2 A1"/>
    </vehicle>
    <vehicle id="veh_200" type="autonomous" depart="600.00">
        <route edges="L2 A2 L5"/>
    </vehicle>
    <vehicle id="veh_201" type="autonomous" depart="603.00">
        <route edges="A0 L1"/>
    </vehicle>
    <vehicle id="veh_202" type="autonomous" depart="606.00">
        <route edges="L2 A1"/>
    </vehicle>
    <vehicle id="veh_203" type="autonomous" depart="609.00">
        <route edges="L0 A2 L5"/>
    </vehicle>
    <vehicle id="veh_204" type="autonomous" depart="612.00">
        <route edges="A7 L9"/>
    </vehicle>
    <vehicle id="veh_205" type="autonomous" depart="615.00">
        <route edges="A7 A5 A3 L3"/>
    </vehicle>
    <vehicle id="veh_206" type="autonomous" depart="618.00">
        <route edges="A7 L11"/>
    </vehicle>
    <vehicle id="veh_207" type="autonomous" depart="621.00">
        <route edges="L0 A2 A4 A6"/>
    </vehicle>
    <vehicle id="veh_208" type="autonomous" depart="624.00">
        <route edges="L8 A5 A3 L3"/>
    </vehicle>
    <vehicle id="veh_209" type="autonomous" depart="627.00">
        <route edges="A7 L11"/>
    </vehicle>
    <vehicle id="veh_210" type="autonomous" depart="630.00">
        <route edges="L2 A2 A4 L11"/>
    </vehicle>
    <vehicle id="veh_211" type="autonomous" depart="633.00">
        <route edges="L2 A2 A4 L9"/>
    </vehicle>
    <vehicle id="veh_212" type="autonomous" depart="636.00">
        <route edges="L6 A4 L11"/>
    </vehicle>
    <vehicle id="veh_213" type="autonomous" depart="639.00">
        <route edges="L4 A3 A1"/>
    </vehicle>
    <vehicle id="veh_214" type="autonomous" depart="642.00">
        <route edges="L4 A3 A1"/>
    </vehicle>
    <vehicle id="veh_215" type="autonomous" depart="645.00">
        <route edges="A0 A2 A4 L9"/>
    </vehicle>
    <vehicle id="veh_216" type="autonomous" depart="648.00">
        <route edges="L8 A5 A3 L3"/>
    </vehicle>
    <vehicle id="veh_217" type="autonomous" depart="651.00">
        <route edges="L8 A5 A3 L1"/>
    </vehicle>
    <vehicle id="veh_218" type="autonomous" depart="654.00">
        <route edges="L10 A5 L5"/>
    </vehicle>
    <vehicle id="veh_219" type="autonomous" depart="657.00">
        <route edges="L8 A6"/>
    </vehicle>
    <vehicle id="veh_220" type="autonomous" depart="660.00">
        <route edges="A7 A5 A3 L3"/>
    </vehicle>
    <vehicle id="veh_221" type="autonomous" depart="663.00">
        <route edges="A0 L1"/>
    </vehicle>
    <vehicle id="veh_222" type="autonomous" depart="666.00">
        <route edges="L8 A5 L5"/>
    </vehicle>
    <vehicle id="veh_223" type="autonomous" depart="669.00">
        <route edges="L4 L7"/>
    </vehicle>
    <vehicle id="veh_224" type="autonomous" depart="672.00">
        <route edges="L6 A4 L11"/>
    </vehicle>
    <vehicle id="veh_225" type="autonomous" depart="675.00">
        <route edges="L4 A4 L11"/>
    </vehicle>
    <vehicle id="veh_226" type="autonomous" depart="678.00">
        <route edges="L0 A2 L5"/>
    </vehicle>
    <vehicle id="veh_227" type="autonomous" depart="681.00">
        <route edges="A7 A5 A3 A1"/>
    </vehicle>
    <vehicle id="veh_228" type="autonomous" depart="684.00">
        <route edges="L0 A1"/>
    </vehicle>
    <vehicle id="veh_229" type="autonomous" depart="687.00">
        <route edges="A7 A5 A3 L1"/>
    </vehicle>
    <vehicle id="veh_230" type="autonomous" depart="690.00">
        <route edges="A0 L1"/>
    </vehicle>
    <vehicle id="veh_231" type="autonomous" depart="693.00">
        <route edges="L0 A2 L5"/>
    </vehicle>
    <vehicle id="veh_232" type="autonomous" depart="696.00">
        <route edges="A7 L9"/>
    </vehicle>
    <vehicle id="veh_233" type="autonomous" depart="699.00">
        <route edges="L2 A2 A4 A6"/>
    </vehicle>
    <vehicle id="veh_234" type="autonomous" depart="702.00">
        <route edges="L8 A5 A3 L3"/>
    </vehicle>
    <vehicle id="veh_235" type="autonomous" depart="705.00">
        <route edges="L6 A3 A1"/>
    </vehicle>
    <vehicle id="veh_236" type="autonomous" depart="708.00">
        <route edges="L2 A2 L5"/>
    </vehicle>
    <vehicle id="veh_237" type="autonomous" depart="711.00">
        <route edges="L0 A2 A4 A6"/>
    </vehicle>
    <vehicle id="veh_238" type="autonomous" depart="714.00">
        <route edges="L2 A2 L5"/>
    </vehicle>
    <vehicle id="veh_239" type="autonomous" depart="717.00">
        <route edges="L10 A5 A3 A1"/>
    </vehicle>
    <vehicle id="veh_240" type="autonomous" depart="720.00">
        <route edges="A0 L1"/>
    </vehicle>
    <vehicle id="veh_241" type="autonomous" depart="723.00">
        <route edges="L2 A2 A4 L11"/>
    </vehicle>
    <vehicle id="veh_242" type="autonomous" depart="726.00">
        <route edges="L10 A5 A3 L3"/>
    </vehicle>
    <vehicle id="veh_243" type="autonomous" depart="729.00">
        <route edges="L4 A4 A6"/>
    </vehicle>
    <vehicle id="veh_244" type="autonomous" depart="732.00">
        <route edges="L10 A5 L7"/>
    </vehicle>
    <vehicle id="veh_245" type="autonomous" depart="735.00">
        <route edges="L2 A2 L5"/>
    </vehicle>
    <vehicle id="veh_246" type="autonomous" depart="738.00">
        <route edges="A7 A5 L5"/>
    </vehicle>
    <vehicle id="veh_247" type="autonomous" depart="741.00">
        <route edges="L2 L1"/>
    </vehicle>
    <vehicle id="veh_248" type="autonomous" depart="744.00">
        <route edges="A0 L1"/>
    </vehicle>
    <vehicle id="veh_249" type="autonomous" depart="747.00">
        <route edges="L10 A5 L7"/>
    </vehicle>
    <vehicle id="veh_250" type="autonomous" depart="750.00">
        <route edges="L4 A3 L1"/>
    </vehicle>
    <vehicle id="veh_251" type="autonomous" depart="753.00">
        <route edges="L8 A5 A3 L3"/>
    </vehicle>
    <vehicle id="veh_252" type="autonomous" depart="756.00">
        <route edges="L2 A2 A4 L11"/>
    </vehicle>
    <vehicle id="veh_253" type="autonomous" depart="759.00">
        <route edges="L6 A3 A1"/>
    </vehicle>
    <vehicle id="veh_254" type="autonomous" depart="762.00">
        <route edges="L4 A3 L3"/>
    </vehicle>
    <vehicle id="veh_255" type="autonomous" depart="765.00">
        <route edges="A0 A2 A4 A6"/>
    </vehicle>
    <vehicle id="veh_256" type="autonomous" depart="768.00">
        <route edges="L4 A3 L3"/>
    </vehicle>
    <vehicle id="veh_257" type="autonomous" depart="771.00">
        <route edges="L2 A2 A4 A6"/>
    </vehicle>