<?xml version="1.0" encoding="UTF-8"?>

<!-- generated on 2024-02-24 15:35:53 by Eclipse SUMO netedit Version 1.19.0
<configuration xmlns:xsi="http://www.w3.org/2001/XMLSchema-instance" xsi:noNamespaceSchemaLocation="http://sumo.dlr.de/xsd/neteditConfiguration.xsd">

    <input>
        <sumo-net-file value="C:\Users\axele\OneDrive\Desktop\Courses\Distributed Systems\tJunction test\tJunction.net.xml"/>
    </input>

    <output>
        <output-file value="C:\Users\axele\OneDrive\Desktop\Courses\Distributed Systems\tJunction test\tJunction.net.xml"/>
    </output>

    <processing>
        <offset.disable-normalization value="true"/>
    </processing>

    <junctions>
        <no-turnarounds value="true"/>
    </junctions>

    <netedit>
        <new-network value="false"/>
    </netedit>

</configuration>
-->

<net version="1.16" junctionCornerDetail="5" limitTurnSpeed="5.50" xmlns:xsi="http://www.w3.org/2001/XMLSchema-instance" xsi:noNamespaceSchemaLocation="http://sumo.dlr.de/xsd/net_file.xsd">

    <location netOffset="0.00,0.00" convBoundary="-200.00,0.00,200.00,100.00" origBoundary="10000000000.00,10000000000.00,-10000000000.00,-10000000000.00" projParameter="!"/>

    <edge id=":J0_0" function="internal">
        <lane id=":J0_0_0" index="0" speed="6.51" length="9.03" shape="-1.60,7.20 -1.95,4.75 -3.00,3.00 -4.75,1.95 -7.20,1.60"/>
    </edge>
    <edge id=":J0_1" function="internal">
        <lane id=":J0_1_0" index="0" speed="8.00" length="14.19" shape="-1.60,7.20 -1.05,3.35 0.60,0.60 3.35,-1.05 7.20,-1.60"/>
    </edge>
    <edge id=":J0_2" function="internal">
        <lane id=":J0_2_0" index="0" speed="6.51" length="9.03" shape="7.20,1.60 4.75,1.95 3.00,3.00 1.95,4.75 1.60,7.20"/>
    </edge>
    <edge id=":J0_3" function="internal">
        <lane id=":J0_3_0" index="0" speed="13.89" length="14.40" shape="7.20,1.60 -7.20,1.60"/>
    </edge>
    <edge id=":J0_4" function="internal">
        <lane id=":J0_4_0" index="0" speed="13.89" length="14.40" shape="-7.20,-1.60 7.20,-1.60"/>
    </edge>
    <edge id=":J0_5" function="internal">
        <lane id=":J0_5_0" index="0" speed="8.00" length="4.07" shape="-7.20,-1.60 -3.35,-1.05 -3.20,-0.96"/>
    </edge>
    <edge id=":J0_6" function="internal">
        <lane id=":J0_6_0" index="0" speed="8.00" length="10.13" shape="-3.20,-0.96 -0.60,0.60 1.05,3.35 1.60,7.20"/>
    </edge>

    <edge id="L0" from="1" to="J0" priority="2">
        <lane id="L0_0" index="0" speed="13.89" length="192.80" shape="-200.00,-1.60 -7.20,-1.60"/>
    </edge>
    <edge id="L1" from="J0" to="1" priority="2">
        <lane id="L1_0" index="0" speed="13.89" length="192.80" shape="-7.20,1.60 -200.00,1.60"/>
    </edge>
    <edge id="L2" from="2" to="J0" priority="3">
        <lane id="L2_0" index="0" speed="13.89" length="92.80" shape="-1.60,100.00 -1.60,7.20"/>
    </edge>
    <edge id="L3" from="J0" to="2" priority="3">
        <lane id="L3_0" index="0" speed="13.89" length="92.80" shape="1.60,7.20 1.60,100.00"/>
    </edge>
    <edge id="L4" from="3" to="J0" priority="2">
        <lane id="L4_0" index="0" speed="13.89" length="192.80" shape="200.00,1.60 7.20,1.60"/>
    </edge>
    <edge id="L5" from="J0" to="3" priority="2">
        <lane id="L5_0" index="0" speed="13.89" length="192.80" shape="7.20,-1.60 200.00,-1.60"/>
    </edge>

    <tlLogic id="J1" type="static" programID="0" offset="0">
        <phase duration="42" state="rrGGGg"/>
        <phase duration="3"  state="rryyyy"/>
        <phase duration="42" state="GGGrrr"/>
        <phase duration="3"  state="yyyrrr"/>
    </tlLogic>

    <junction id="1" type="dead_end" x="-200.00" y="0.00" incLanes="L1_0" intLanes="" shape="-200.00,0.00 -200.00,3.20 -200.00,0.00"/>
    <junction id="2" type="dead_end" x="0.00" y="100.00" incLanes="L3_0" intLanes="" shape="0.00,100.00 3.20,100.00 0.00,100.00"/>
    <junction id="3" type="dead_end" x="200.00" y="0.00" incLanes="L5_0" intLanes="" shape="200.00,0.00 200.00,-3.20 200.00,0.00"/>
    <junction id="J0" type="traffic_light" x="0.00" y="0.00" incLanes="L2_0 L4_0 L0_0" intLanes=":J0_0_0 :J0_1_0 :J0_2_0 :J0_3_0 :J0_4_0 :J0_6_0" shape="-3.20,7.20 3.20,7.20 3.64,4.98 4.20,4.20 4.98,3.64 5.98,3.31 7.20,3.20 7.20,-3.20 -7.20,-3.20 -7.20,3.20 -4.98,3.64 -4.20,4.20 -3.64,4.98 -3.31,5.98">
        <request index="0" response="001000" foes="001000" cont="0"/>
        <request index="2" response="111000" foes="111000" cont="0"/>
        <request index="2" response="000000" foes="100000" cont="0"/>
        <request index="3" response="000000" foes="100011" cont="0"/>
        <request index="4" response="000000" foes="000010" cont="0"/>
        <request index="5" response="001100" foes="001110" cont="1"/>
    </junction>

    <junction id=":J0_6_0" type="internal" x="-3.20" y="-0.96" incLanes=":J0_5_0 L4_0" intLanes=":J0_1_0 :J0_2_0 :J0_3_0"/>

    <connection from="L0" to="L5" fromLane="0" toLane="0" via=":J0_4_0" tl="J1" linkIndex="4" dir="s" state="O"/>
    <connection from="L0" to="L3" fromLane="0" toLane="0" via=":J0_5_0" tl="J1" linkIndex="5" dir="l" state="o"/>
    <connection from="L2" to="L1" fromLane="0" toLane="0" via=":J0_0_0" tl="J1" linkIndex="0" dir="r" state="o"/>
    <connection from="L2" to="L5" fromLane="0" toLane="0" via=":J0_1_0" tl="J1" linkIndex="1" dir="l" state="o"/>
    <connection from="L4" to="L3" fromLane="0" toLane="0" via=":J0_2_0" tl="J1" linkIndex="2" dir="r" state="O"/>
    <connection from="L4" to="L1" fromLane="0" toLane="0" via=":J0_3_0" tl="J1" linkIndex="3" dir="s" state="O"/>

    <connection from=":J0_0" to="L1" fromLane="0" toLane="0" dir="r" state="M"/>
    <connection from=":J0_1" to="L5" fromLane="0" toLane="0" dir="l" state="M"/>
    <connection from=":J0_2" to="L3" fromLane="0" toLane="0" dir="r" state="M"/>
    <connection from=":J0_3" to="L1" fromLane="0" toLane="0" dir="s" state="M"/>
    <connection from=":J0_4" to="L5" fromLane="0" toLane="0" dir="s" state="M"/>
    <connection from=":J0_5" to="L3" fromLane="0" toLane="0" via=":J0_6_0" dir="l" state="m"/>
    <connection from=":J0_6" to="L3" fromLane="0" toLane="0" dir="l" state="M"/>

</net>
