<trips>
    <vType id="normal" accel="2.6" decel="4.5" sigma="0.5" length="5" maxSpeed="33.33" guiShape="passenger"/>
    <vType id="autonomous" accel="2.6" decel="4.5" sigma="0.0" length="5" maxSpeed="33.33" guiShape="passenger" color="0,255,0" carFollowModel="Krauss" lcStrategic="5.0" lcCooperative="5.0" lcSpeedGain="5.0" lcKeepRight="1.0" />
    <trip id="veh_0" type="normal" from="L10" to="L7" depart="0"/>
    <trip id="veh_1" type="normal" from="A7" to="L11" depart="1"/>
    <trip id="veh_2" type="normal" from="L6" to="L9" depart="3"/>
    <trip id="veh_3" type="normal" from="A7" to="L1" depart="4"/>
    <trip id="veh_4" type="normal" from="L2" to="L7" depart="5"/>
    <trip id="veh_5" type="normal" from="L8" to="L5" depart="7"/>
    <trip id="veh_6" type="normal" from="A0" to="L5" depart="9"/>
    <trip id="veh_7" type="normal" from="L10" to="L9" depart="10"/>
    <trip id="veh_8" type="autonomous" from="L8" to="L3" depart="12"/>
    <trip id="veh_9" type="normal" from="L0" to="L11" depart="14"/>
    <trip id="veh_10" type="normal" from="L0" to="L7" depart="16"/>
    <trip id="veh_11" type="normal" from="L6" to="L1" depart="17"/>
    <trip id="veh_12" type="normal" from="L8" to="L7" depart="19"/>
    <trip id="veh_13" type="autonomous" from="L0" to="L7" depart="21"/>
    <trip id="veh_14" type="autonomous" from="A7" to="A1" depart="23"/>
    <trip id="veh_15" type="normal" from="L4" to="A6" depart="24"/>
    <trip id="veh_16" type="autonomous" from="L8" to="A6" depart="25"/>
    <trip id="veh_17" type="normal" from="L2" to="L1" depart="26"/>
    <trip id="veh_18" type="normal" from="A0" to="L3" depart="27"/>
    <trip id="veh_19" type="normal" from="L8" to="L7" depart="29"/>
    <trip id="veh_20" type="normal" from="L10" to="L1" depart="31"/>
    <trip id="veh_21" type="normal" from="L0" to="L11" depart="33"/>
    <trip id="veh_22" type="normal" from="L10" to="L9" depart="35"/>
    <trip id="veh_23" type="autonomous" from="L10" to="L7" depart="36"/>
    <trip id="veh_24" type="normal" from="L10" to="L1" depart="38"/>
    <trip id="veh_25" type="normal" from="L4" to="A6" depart="40"/>
    <trip id="veh_26" type="normal" from="A0" to="L1" depart="41"/>
    <trip id="veh_27" type="normal" from="L10" to="L1" depart="42"/>
    <trip id="veh_28" type="autonomous" from="L8" to="L3" depart="44"/>
    <trip id="veh_29" type="autonomous" from="A7" to="A1" depart="46"/>
    <trip id="veh_30" type="autonomous" from="L0" to="A1" depart="47"/>
    <trip id="veh_31" type="normal" from="L4" to="L9" depart="49"/>
    <trip id="veh_32" type="autonomous" from="L6" to="L1" depart="51"/>
    <trip id="veh_33" type="autonomous" from="L2" to="L7" depart="53"/>
    <trip id="veh_34" type="normal" from="L2" to="L1" depart="55"/>
    <trip id="veh_35" type="normal" from="L10" to="A1" depart="57"/>
    <trip id="veh_36" type="normal" from="L6" to="L1" depart="59"/>
    <trip id="veh_37" type="normal" from="A0" to="L11" depart="60"/>
    <trip id="veh_38" type="normal" from="L0" to="A6" depart="61"/>
    <trip id="veh_39" type="normal" from="A0" to="L7" depart="63"/>
    <trip id="veh_40" type="autonomous" from="L10" to="L3" depart="65"/>
    <trip id="veh_41" type="normal" from="L4" to="L9" depart="66"/>
    <trip id="veh_42" type="normal" from="A7" to="L11" depart="67"/>
    <trip id="veh_43" type="normal" from="A0" to="L5" depart="69"/>
    <trip id="veh_44" type="normal" from="L2" to="L1" depart="71"/>
    <trip id="veh_45" type="normal" from="L2" to="L9" depart="72"/>
    <trip id="veh_46" type="autonomous" from="L10" to="L3" depart="74"/>
    <trip id="veh_47" type="normal" from="L2" to="L7" depart="75"/>
    <trip id="veh_48" type="autonomous" from="L6" to="L3" depart="76"/>
    <trip id="veh_49" type="normal" from="L4" to="A1" depart="78"/>
    <trip id="veh_50" type="normal" from="L0" to="A1" depart="80"/>
    <trip id="veh_51" type="normal" from="L10" to="L9" depart="82"/>
    <trip id="veh_52" type="normal" from="L10" to="A6" depart="83"/>
    <trip id="veh_53" type="normal" from="L4" to="L11" depart="84"/>
    <trip id="veh_54" type="normal" from="L8" to="L5" depart="85"/>
    <trip id="veh_55" type="autonomous" from="A0" to="A6" depart="86"/>
    <trip id="veh_56" type="normal" from="L8" to="L1" depart="88"/>
    <trip id="veh_57" type="normal" from="L0" to="A1" depart="90"/>
    <trip id="veh_58" type="autonomous" from="A7" to="L3" depart="91"/>
    <trip id="veh_59" type="normal" from="L8" to="A6" depart="92"/>
    <trip id="veh_60" type="normal" from="A7" to="L11" depart="93"/>
    <trip id="veh_61" type="normal" from="L4" to="L3" depart="95"/>
    <trip id="veh_62" type="normal" from="L0" to="L5" depart="97"/>
    <trip id="veh_63" type="autonomous" from="L4" to="L1" depart="99"/>
    <trip id="veh_64" type="normal" from="L10" to="L9" depart="100"/>
    <trip id="veh_65" type="normal" from="L10" to="L9" depart="102"/>
    <trip id="veh_66" type="normal" from="L0" to="A6" depart="103"/>
    <trip id="veh_67" type="normal" from="A7" to="L7" depart="104"/>
    <trip id="veh_68" type="autonomous" from="L0" to="A1" depart="105"/>
    <trip id="veh_69" type="normal" from="L4" to="L9" depart="106"/>
    <trip id="veh_70" type="autonomous" from="L6" to="A1" depart="108"/>
    <trip id="veh_71" type="normal" from="L0" to="L11" depart="110"/>
    <trip id="veh_72" type="normal" from="L2" to="L11" depart="112"/>
    <trip id="veh_73" type="normal" from="L10" to="A1" depart="114"/>
    <trip id="veh_74" type="normal" from="L8" to="L7" depart="116"/>
    <trip id="veh_75" type="autonomous" from="L6" to="L5" depart="117"/>
    <trip id="veh_76" type="normal" from="L4" to="L3" depart="119"/>
    <trip id="veh_77" type="autonomous" from="L0" to="A1" depart="120"/>
    <trip id="veh_78" type="normal" from="L0" to="L11" depart="121"/>
    <trip id="veh_79" type="normal" from="L0" to="L11" depart="122"/>
    <trip id="veh_80" type="normal" from="L8" to="L5" depart="123"/>
    <trip id="veh_81" type="normal" from="L8" to="A1" depart="125"/>
    <trip id="veh_82" type="normal" from="L10" to="A6" depart="126"/>
    <trip id="veh_83" type="normal" from="L10" to="L7" depart="128"/>
    <trip id="veh_84" type="normal" from="L6" to="L11" depart="130"/>
    <trip id="veh_85" type="normal" from="L4" to="A1" depart="132"/>
    <trip id="veh_86" type="normal" from="L10" to="L9" depart="133"/>
    <trip id="veh_87" type="normal" from="L2" to="A1" depart="134"/>
    <trip id="veh_88" type="autonomous" from="L4" to="L9" depart="136"/>
    <trip id="veh_89" type="normal" from="L10" to="L5" depart="137"/>
    <trip id="veh_90" type="normal" from="A7" to="L3" depart="139"/>
    <trip id="veh_91" type="autonomous" from="A7" to="L7" depart="140"/>
    <trip id="veh_92" type="normal" from="L2" to="L11" depart="142"/>
    <trip id="veh_93" type="autonomous" from="A7" to="L11" depart="143"/>
    <trip id="veh_94" type="normal" from="L0" to="L5" depart="144"/>
    <trip id="veh_95" type="normal" from="L0" to="L5" depart="146"/>
    <trip id="veh_96" type="normal" from="L6" to="L5" depart="147"/>
    <trip id="veh_97" type="autonomous" from="L0" to="L7" depart="148"/>
    <trip id="veh_98" type="normal" from="L4" to="A1" depart="150"/>
    <trip id="veh_99" type="normal" from="L2" to="A1" depart="151"/>
    <trip id="veh_100" type="normal" from="L2" to="L7" depart="152"/>
    <trip id="veh_101" type="autonomous" from="L10" to="L3" depart="153"/>
    <trip id="veh_102" type="normal" from="L4" to="A1" depart="154"/>
    <trip id="veh_103" type="normal" from="L0" to="A1" depart="155"/>
    <trip id="veh_104" type="normal" from="A7" to="L3" depart="157"/>
    <trip id="veh_105" type="normal" from="L2" to="L9" depart="158"/>
    <trip id="veh_106" type="normal" from="L0" to="A1" depart="159"/>
    <trip id="veh_107" type="normal" from="L4" to="L9" depart="160"/>
    <trip id="veh_108" type="normal" from="L4" to="L9" depart="162"/>
    <trip id="veh_109" type="normal" from="L6" to="L9" depart="164"/>
    <trip id="veh_110" type="normal" from="L10" to="L5" depart="165"/>
    <trip id="veh_111" type="normal" from="L4" to="L1" depart="167"/>
    <trip id="veh_112" type="normal" from="A7" to="L1" depart="168"/>
    <trip id="veh_113" type="normal" from="L0" to="L5" depart="169"/>
    <trip id="veh_114" type="normal" from="L10" to="L7" depart="170"/>
    <trip id="veh_115" type="normal" from="L2" to="L5" depart="172"/>
    <trip id="veh_116" type="normal" from="L10" to="L3" depart="174"/>
    <trip id="veh_117" type="normal" from="A7" to="A1" depart="176"/>
    <trip id="veh_118" type="normal" from="L6" to="L1" depart="178"/>
    <trip id="veh_119" type="autonomous" from="L0" to="L5" depart="180"/>
    <trip id="veh_120" type="normal" from="L10" to="L3" depart="182"/>
    <trip id="veh_121" type="normal" from="L2" to="L9" depart="183"/>
    <trip id="veh_122" type="autonomous" from="L4" to="L1" depart="185"/>
    <trip id="veh_123" type="autonomous" from="L6" to="L3" depart="186"/>
    <trip id="veh_124" type="normal" from="L4" to="A6" depart="187"/>
    <trip id="veh_125" type="normal" from="L10" to="L5" depart="189"/>
    <trip id="veh_126" type="normal" from="L4" to="L7" depart="190"/>
    <trip id="veh_127" type="normal" from="L2" to="L11" depart="191"/>
    <trip id="veh_128" type="normal" from="L0" to="A6" depart="193"/>
    <trip id="veh_129" type="normal" from="L2" to="L1" depart="195"/>
    <trip id="veh_130" type="normal" from="A0" to="L1" depart="197"/>
    <trip id="veh_131" type="normal" from="L8" to="L3" depart="198"/>
    <trip id="veh_132" type="normal" from="L0" to="L3" depart="199"/>
    <trip id="veh_133" type="normal" from="L6" to="L5" depart="200"/>
    <trip id="veh_134" type="autonomous" from="L0" to="L9" depart="201"/>
    <trip id="veh_135" type="normal" from="A7" to="L1" depart="202"/>
    <trip id="veh_136" type="normal" from="L10" to="L3" depart="203"/>
    <trip id="veh_137" type="autonomous" from="L2" to="L11" depart="204"/>
    <trip id="veh_138" type="normal" from="A7" to="L11" depart="205"/>
    <trip id="veh_139" type="normal" from="L2" to="L9" depart="207"/>
    <trip id="veh_140" type="normal" from="L2" to="L9" depart="208"/>
    <trip id="veh_141" type="normal" from="L4" to="L11" depart="210"/>
    <trip id="veh_142" type="normal" from="L8" to="L7" depart="211"/>
    <trip id="veh_143" type="normal" from="L4" to="L11" depart="212"/>
    <trip id="veh_144" type="normal" from="L10" to="A1" depart="214"/>
    <trip id="veh_145" type="autonomous" from="L0" to="A1" depart="216"/>
    <trip id="veh_146" type="normal" from="L0" to="L7" depart="218"/>
    <trip id="veh_147" type="normal" from="A7" to="L11" depart="220"/>
    <trip id="veh_148" type="normal" from="A0" to="L1" depart="221"/>
    <trip id="veh_149" type="autonomous" from="L8" to="L7" depart="222"/>
    <trip id="veh_150" type="normal" from="L2" to="A1" depart="223"/>
    <trip id="veh_151" type="normal" from="L2" to="L9" depart="224"/>
    <trip id="veh_152" type="normal" from="L2" to="L1" depart="225"/>
    <trip id="veh_153" type="normal" from="L8" to="L5" depart="226"/>
    <trip id="veh_154" type="autonomous" from="A7" to="L1" depart="227"/>
    <trip id="veh_155" type="autonomous" from="L8" to="L11" depart="229"/>
    <trip id="veh_156" type="normal" from="A0" to="A6" depart="231"/>
    <trip id="veh_157" type="normal" from="A7" to="L1" depart="233"/>
    <trip id="veh_158" type="normal" from="L10" to="L5" depart="234"/>
    <trip id="veh_159" type="normal" from="A0" to="L1" depart="236"/>
    <trip id="veh_160" type="normal" from="L4" to="L9" depart="237"/>
    <trip id="veh_161" type="normal" from="L4" to="L1" depart="239"/>
    <trip id="veh_162" type="normal" from="A0" to="L1" depart="241"/>
    <trip id="veh_163" type="normal" from="A0" to="L5" depart="242"/>
    <trip id="veh_164" type="normal" from="L6" to="L11" depart="244"/>
    <trip id="veh_165" type="normal" from="L4" to="L3" depart="245"/>
    <trip id="veh_166" type="autonomous" from="L2" to="A6" depart="247"/>
    <trip id="veh_167" type="normal" from="L0" to="A6" depart="249"/>
    <trip id="veh_168" type="normal" from="A0" to="L11" depart="250"/>
    <trip id="veh_169" type="normal" from="L2" to="L9" depart="251"/>
    <trip id="veh_170" type="autonomous" from="A7" to="L11" depart="253"/>
    <trip id="veh_171" type="normal" from="A0" to="L3" depart="254"/>
    <trip id="veh_172" type="normal" from="L4" to="L11" depart="256"/>
    <trip id="veh_173" type="autonomous" from="L10" to="L7" depart="258"/>
    <trip id="veh_174" type="normal" from="L10" to="A1" depart="260"/>
    <trip id="veh_175" type="normal" from="L0" to="L7" depart="262"/>
    <trip id="veh_176" type="normal" from="L10" to="L1" depart="264"/>
    <trip id="veh_177" type="normal" from="L4" to="L1" depart="266"/>
    <trip id="veh_178" type="normal" from="A7" to="L11" depart="267"/>
    <trip id="veh_179" type="autonomous" from="A7" to="A1" depart="268"/>
    <trip id="veh_180" type="normal" from="A7" to="L9" depart="269"/>
    <trip id="veh_181" type="normal" from="L0" to="L9" depart="270"/>
    <trip id="veh_182" type="normal" from="L4" to="L11" depart="271"/>
    <trip id="veh_183" type="normal" from="L6" to="L5" depart="273"/>
    <trip id="veh_184" type="normal" from="L10" to="A6" depart="275"/>
    <trip id="veh_185" type="normal" from="L0" to="L3" depart="277"/>
    <trip id="veh_186" type="normal" from="L4" to="A6" depart="278"/>
    <trip id="veh_187" type="normal" from="L2" to="A1" depart="280"/>
    <trip id="veh_188" type="normal" from="L0" to="L5" depart="282"/>
    <trip id="veh_189" type="normal" from="L6" to="L9" depart="283"/>
    <trip id="veh_190" type="normal" from="L8" to="L1" depart="284"/>
    <trip id="veh_191" type="autonomous" from="L0" to="L5" depart="286"/>
    <trip id="veh_192" type="autonomous" from="L2" to="L7" depart="287"/>
    <trip id="veh_193" type="normal" from="L6" to="A1" depart="288"/>
    <trip id="veh_194" type="normal" from="A7" to="L3" depart="290"/>
    <trip id="veh_195" type="normal" from="A0" to="L3" depart="291"/>
    <trip id="veh_196" type="normal" from="L6" to="L9" depart="293"/>
    <trip id="veh_197" type="normal" from="L6" to="L1" depart="295"/>
    <trip id="veh_198" type="normal" from="L8" to="L1" depart="296"/>
    <trip id="veh_199" type="autonomous" from="L2" to="L9" depart="298"/>
    <trip id="veh_200" type="autonomous" from="A0" to="L3" depart="299"/>
    <trip id="veh_201" type="normal" from="L6" to="A6" depart="300"/>
    <trip id="veh_202" type="normal" from="L4" to="L9" depart="302"/>
    <trip id="veh_203" type="normal" from="L10" to="L5" depart="304"/>
    <trip id="veh_204" type="normal" from="L2" to="L11" depart="306"/>
    <trip id="veh_205" type="autonomous" from="A7" to="L5" depart="307"/>
    <trip id="veh_206" type="autonomous" from="A7" to="L9" depart="308"/>
    <trip id="veh_207" type="normal" from="L8" to="L11" depart="309"/>
    <trip id="veh_208" type="normal" from="L2" to="L9" depart="311"/>
    <trip id="veh_209" type="autonomous" from="L0" to="L9" depart="312"/>
    <trip id="veh_210" type="normal" from="A0" to="A6" depart="313"/>
    <trip id="veh_211" type="normal" from="L10" to="L5" depart="314"/>
    <trip id="veh_212" type="normal" from="L0" to="L7" depart="315"/>
    <trip id="veh_213" type="normal" from="L8" to="A1" depart="316"/>
    <trip id="veh_214" type="autonomous" from="A0" to="L3" depart="317"/>
    <trip id="veh_215" type="autonomous" from="L8" to="L1" depart="319"/>
    <trip id="veh_216" type="autonomous" from="L4" to="L3" depart="321"/>
    <trip id="veh_217" type="normal" from="L10" to="L7" depart="322"/>
    <trip id="veh_218" type="normal" from="A7" to="L1" depart="324"/>
    <trip id="veh_219" type="normal" from="L6" to="L9" depart="325"/>
    <trip id="veh_220" type="normal" from="L8" to="A6" depart="326"/>
    <trip id="veh_221" type="normal" from="A0" to="L5" depart="327"/>
    <trip id="veh_222" type="normal" from="L10" to="A1" depart="328"/>
    <trip id="veh_223" type="normal" from="L8" to="L5" depart="329"/>
    <trip id="veh_224" type="normal" from="L8" to="L5" depart="331"/>
    <trip id="veh_225" type="normal" from="A7" to="L5" depart="333"/>
    <trip id="veh_226" type="autonomous" from="A0" to="L9" depart="334"/>
    <trip id="veh_227" type="normal" from="A7" to="L5" depart="336"/>
    <trip id="veh_228" type="normal" from="L2" to="A6" depart="337"/>
    <trip id="veh_229" type="normal" from="L4" to="A1" depart="339"/>
    <trip id="veh_230" type="autonomous" from="L2" to="L11" depart="341"/>
    <trip id="veh_231" type="normal" from="L0" to="A6" depart="342"/>
    <trip id="veh_232" type="normal" from="L10" to="L3" depart="343"/>
    <trip id="veh_233" type="autonomous" from="L6" to="L11" depart="344"/>
    <trip id="veh_234" type="normal" from="A0" to="L7" depart="345"/>
    <trip id="veh_235" type="normal" from="L6" to="L9" depart="347"/>
    <trip id="veh_236" type="normal" from="L2" to="L5" depart="348"/>
    <trip id="veh_237" type="normal" from="L0" to="A6" depart="350"/>
    <trip id="veh_238" type="normal" from="A0" to="L1" depart="352"/>
    <trip id="veh_239" type="autonomous" from="L0" to="L5" depart="353"/>
    <trip id="veh_240" type="autonomous" from="L2" to="A1" depart="354"/>
    <trip id="veh_241" type="autonomous" from="L4" to="L3" depart="355"/>
    <trip id="veh_242" type="autonomous" from="L8" to="A1" depart="357"/>
    <trip id="veh_243" type="normal" from="L10" to="L5" depart="359"/>
    <trip id="veh_244" type="normal" from="A7" to="L3" depart="360"/>
    <trip id="veh_245" type="normal" from="A7" to="L7" depart="361"/>
    <trip id="veh_246" type="autonomous" from="L6" to="L1" depart="363"/>
    <trip id="veh_247" type="normal" from="L0" to="L11" depart="364"/>
    <trip id="veh_248" type="autonomous" from="L0" to="A1" depart="366"/>
    <trip id="veh_249" type="normal" from="L10" to="L7" depart="368"/>
    <trip id="veh_250" type="autonomous" from="L6" to="A1" depart="370"/>
    <trip id="veh_251" type="normal" from="L0" to="L7" depart="371"/>
    <trip id="veh_252" type="normal" from="L0" to="L7" depart="372"/>
    <trip id="veh_253" type="normal" from="A7" to="L7" depart="373"/>
    <trip id="veh_254" type="autonomous" from="A7" to="L11" depart="375"/>
    <trip id="veh_255" type="autonomous" from="L8" to="L3" depart="376"/>
    <trip id="veh_256" type="normal" from="L10" to="L3" depart="378"/>
    <trip id="veh_257" type="autonomous" from="A0" to="L1" depart="380"/>
    <trip id="veh_258" type="normal" from="A7" to="A1" depart="382"/>
    <trip id="veh_259" type="normal" from="L0" to="L7" depart="384"/>
    <trip id="veh_260" type="normal" from="L6" to="L1" depart="385"/>
    <trip id="veh_261" type="normal" from="A0" to="L5" depart="387"/>
    <trip id="veh_262" type="normal" from="L2" to="L11" depart="388"/>
    <trip id="veh_263" type="normal" from="L4" to="L7" depart="390"/>
    <trip id="veh_264" type="normal" from="L10" to="L5" depart="391"/>
    <trip id="veh_265" type="normal" from="A7" to="A1" depart="393"/>
    <trip id="veh_266" type="normal" from="L2" to="A1" depart="394"/>
    <trip id="veh_267" type="normal" from="L8" to="L1" depart="395"/>
    <trip id="veh_268" type="normal" from="L8" to="A1" depart="396"/>
    <trip id="veh_269" type="normal" from="A7" to="L5" depart="398"/>
    <trip id="veh_270" type="autonomous" from="L10" to="L9" depart="399"/>
    <trip id="veh_271" type="normal" from="L2" to="L1" depart="401"/>
    <trip id="veh_272" type="autonomous" from="L8" to="L11" depart="403"/>
    <trip id="veh_273" type="autonomous" from="L10" to="L7" depart="405"/>
    <trip id="veh_274" type="normal" from="L0" to="L7" depart="407"/>
    <trip id="veh_275" type="normal" from="A7" to="L11" depart="409"/>
    <trip id="veh_276" type="normal" from="L8" to="L3" depart="411"/>
    <trip id="veh_277" type="normal" from="L8" to="A6" depart="413"/>
    <trip id="veh_278" type="normal" from="L8" to="L1" depart="415"/>
    <trip id="veh_279" type="normal" from="L8" to="A6" depart="417"/>
    <trip id="veh_280" type="normal" from="L8" to="A6" depart="418"/>
    <trip id="veh_281" type="normal" from="L6" to="L11" depart="419"/>
    <trip id="veh_282" type="normal" from="A7" to="L11" depart="421"/>
    <trip id="veh_283" type="normal" from="L6" to="L5" depart="423"/>
    <trip id="veh_284" type="autonomous" from="L0" to="L3" depart="425"/>
    <trip id="veh_285" type="normal" from="A0" to="L3" depart="426"/>
    <trip id="veh_286" type="normal" from="L2" to="L1" depart="427"/>
    <trip id="veh_287" type="autonomous" from="L6" to="L11" depart="428"/>
    <trip id="veh_288" type="normal" from="L0" to="A1" depart="429"/>
    <trip id="veh_289" type="normal" from="A7" to="L5" depart="431"/>
    <trip id="veh_290" type="normal" from="A7" to="L5" depart="433"/>
    <trip id="veh_291" type="normal" from="L6" to="L9" depart="434"/>
    <trip id="veh_292" type="normal" from="L8" to="L5" depart="436"/>
    <trip id="veh_293" type="normal" from="L2" to="L1" depart="437"/>
    <trip id="veh_294" type="normal" from="L4" to="A1" depart="438"/>
    <trip id="veh_295" type="normal" from="A7" to="A1" depart="439"/>
    <trip id="veh_296" type="normal" from="A0" to="A6" depart="440"/>
    <trip id="veh_297" type="normal" from="L6" to="L5" depart="442"/>
    <trip id="veh_298" type="normal" from="A0" to="L5" depart="444"/>
    <trip id="veh_299" type="autonomous" from="L0" to="L11" depart="446"/>
    <trip id="veh_300" type="normal" from="L2" to="L9" depart="447"/>
    <trip id="veh_301" type="normal" from="L0" to="A6" depart="448"/>
    <trip id="veh_302" type="normal" from="L2" to="A1" depart="449"/>
    <trip id="veh_303" type="normal" from="A7" to="A1" depart="451"/>
    <trip id="veh_304" type="normal" from="A0" to="A6" depart="453"/>
    <trip id="veh_305" type="normal" from="L0" to="L9" depart="455"/>
    <trip id="veh_306" type="normal" from="L4" to="L1" depart="456"/>
    <trip id="veh_307" type="normal" from="A0" to="L1" depart="457"/>
    <trip id="veh_308" type="normal" from="L8" to="L1" depart="459"/>
    <trip id="veh_309" type="normal" from="L0" to="L7" depart="461"/>
    <trip id="veh_310" type="normal" from="A0" to="L9" depart="463"/>
    <trip id="veh_311" type="normal" from="L4" to="L9" depart="465"/>
    <trip id="veh_312" type="normal" from="A7" to="L1" depart="467"/>
    <trip id="veh_313" type="normal" from="L0" to="L7" depart="469"/>
    <trip id="veh_314" type="autonomous" from="L2" to="A1" depart="471"/>
    <trip id="veh_315" type="normal" from="L4" to="L1" depart="472"/>
    <trip id="veh_316" type="autonomous" from="L4" to="A1" depart="473"/>
    <trip id="veh_317" type="normal" from="L6" to="L5" depart="474"/>
    <trip id="veh_318" type="normal" from="L4" to="L11" depart="475"/>
    <trip id="veh_319" type="normal" from="L6" to="L1" depart="477"/>
    <trip id="veh_320" type="normal" from="L2" to="L1" depart="478"/>
    <trip id="veh_321" type="normal" from="A7" to="L3" depart="479"/>
    <trip id="veh_322" type="normal" from="L2" to="L7" depart="480"/>
    <trip id="veh_323" type="normal" from="L2" to="L7" depart="481"/>
    <trip id="veh_324" type="normal" from="L8" to="L3" depart="483"/>
    <trip id="veh_325" type="normal" from="A7" to="A1" depart="485"/>
    <trip id="veh_326" type="normal" from="L4" to="L11" depart="487"/>
    <trip id="veh_327" type="normal" from="A0" to="L9" depart="488"/>
    <trip id="veh_328" type="normal" from="L2" to="L7" depart="489"/>
    <trip id="veh_329" type="normal" from="L0" to="L7" depart="490"/>
    <trip id="veh_330" type="normal" from="L10" to="L1" depart="491"/>
    <trip id="veh_331" type="normal" from="A0" to="L9" depart="492"/>
    <trip id="veh_332" type="normal" from="A7" to="L3" depart="493"/>
    <trip id="veh_333" type="normal" from="A7" to="L9" depart="495"/>
    <trip id="veh_334" type="normal" from="A0" to="L5" depart="497"/>
    <trip id="veh_335" type="normal" from="L10" to="A6" depart="498"/>
    <trip id="veh_336" type="normal" from="A7" to="A1" depart="500"/>
    <trip id="veh_337" type="normal" from="L0" to="L5" depart="501"/>
    <trip id="veh_338" type="autonomous" from="L10" to="A1" depart="503"/>
    <trip id="veh_339" type="normal" from="L10" to="L5" depart="504"/>
    <trip id="veh_340" type="normal" from="L0" to="L11" depart="505"/>
    <trip id="veh_341" type="normal" from="L6" to="A6" depart="507"/>
    <trip id="veh_342" type="normal" from="L6" to="L11" depart="509"/>
    <trip id="veh_343" type="normal" from="A0" to="A6" depart="511"/>
    <trip id="veh_344" type="normal" from="L4" to="L9" depart="513"/>
    <trip id="veh_345" type="normal" from="L8" to="L7" depart="514"/>
    <trip id="veh_346" type="normal" from="L10" to="L9" depart="515"/>
    <trip id="veh_347" type="normal" from="A7" to="L3" depart="517"/>
    <trip id="veh_348" type="normal" from="A0" to="L9" depart="519"/>
    <trip id="veh_349" type="normal" from="L10" to="L3" depart="520"/>
    <trip id="veh_350" type="normal" from="L0" to="A1" depart="522"/>
    <trip id="veh_351" type="normal" from="L10" to="L1" depart="524"/>
    <trip id="veh_352" type="normal" from="L8" to="L7" depart="526"/>
    <trip id="veh_353" type="normal" from="L0" to="A1" depart="527"/>
    <trip id="veh_354" type="normal" from="A0" to="A6" depart="529"/>
    <trip id="veh_355" type="normal" from="L0" to="L7" depart="531"/>
    <trip id="veh_356" type="autonomous" from="A7" to="L3" depart="532"/>
    <trip id="veh_357" type="normal" from="A7" to="L3" depart="533"/>
    <trip id="veh_358" type="normal" from="A7" to="L3" depart="534"/>
    <trip id="veh_359" type="normal" from="A0" to="L5" depart="535"/>
    <trip id="veh_360" type="autonomous" from="L4" to="L9" depart="537"/>
    <trip id="veh_361" type="normal" from="A7" to="L5" depart="538"/>
    <trip id="veh_362" type="autonomous" from="L8" to="L7" depart="539"/>
    <trip id="veh_363" type="normal" from="L0" to="L11" depart="541"/>
    <trip id="veh_364" type="autonomous" from="L8" to="A6" depart="542"/>
    <trip id="veh_365" type="normal" from="A7" to="L11" depart="544"/>
    <trip id="veh_366" type="normal" from="L2" to="A1" depart="546"/>
    <trip id="veh_367" type="autonomous" from="A7" to="L1" depart="547"/>
    <trip id="veh_368" type="normal" from="L8" to="L11" depart="549"/>
    <trip id="veh_369" type="normal" from="L0" to="L7" depart="551"/>
    <trip id="veh_370" type="normal" from="L2" to="A1" depart="552"/>
    <trip id="veh_371" type="normal" from="L2" to="L7" depart="553"/>
    <trip id="veh_372" type="normal" from="A7" to="L5" depart="554"/>
    <trip id="veh_373" type="normal" from="L10" to="L9" depart="555"/>
    <trip id="veh_374" type="normal" from="L10" to="L5" depart="557"/>
    <trip id="veh_375" type="normal" from="L8" to="L3" depart="558"/>
    <trip id="veh_376" type="normal" from="A7" to="L9" depart="559"/>
    <trip id="veh_377" type="normal" from="L6" to="L9" depart="560"/>
    <trip id="veh_378" type="normal" from="A7" to="L3" depart="561"/>
    <trip id="veh_379" type="normal" from="L10" to="L5" depart="563"/>
    <trip id="veh_380" type="normal" from="L0" to="L7" depart="564"/>
    <trip id="veh_381" type="normal" from="L4" to="L1" depart="566"/>
    <trip id="veh_382" type="normal" from="L10" to="L5" depart="567"/>
    <trip id="veh_383" type="autonomous" from="L10" to="L5" depart="569"/>
    <trip id="veh_384" type="autonomous" from="L4" to="L11" depart="570"/>
    <trip id="veh_385" type="normal" from="L10" to="L3" depart="572"/>
    <trip id="veh_386" type="normal" from="L6" to="L11" depart="574"/>
    <trip id="veh_387" type="autonomous" from="L8" to="L11" depart="575"/>
    <trip id="veh_388" type="normal" from="L0" to="L11" depart="576"/>
    <trip id="veh_389" type="autonomous" from="L6" to="L5" depart="577"/>
    <trip id="veh_390" type="autonomous" from="L0" to="L3" depart="579"/>
    <trip id="veh_391" type="normal" from="A7" to="L7" depart="581"/>
    <trip id="veh_392" type="normal" from="L0" to="A6" depart="583"/>
    <trip id="veh_393" type="normal" from="L10" to="A6" depart="584"/>
    <trip id="veh_394" type="normal" from="L6" to="L11" depart="586"/>
    <trip id="veh_395" type="normal" from="L4" to="L9" depart="587"/>
    <trip id="veh_396" type="normal" from="A0" to="A6" depart="589"/>
    <trip id="veh_397" type="autonomous" from="L0" to="A1" depart="590"/>
    <trip id="veh_398" type="normal" from="L0" to="L3" depart="591"/>
    <trip id="veh_399" type="normal" from="A7" to="L11" depart="593"/>
    <trip id="veh_400" type="normal" from="L10" to="L5" depart="595"/>
    <trip id="veh_401" type="normal" from="L0" to="A6" depart="596"/>
    <trip id="veh_402" type="normal" from="L0" to="A6" depart="598"/>
    <trip id="veh_403" type="normal" from="L0" to="L3" depart="599"/>
    <trip id="veh_404" type="normal" from="L8" to="L1" depart="601"/>
    <trip id="veh_405" type="autonomous" from="L10" to="A1" depart="602"/>
    <trip id="veh_406" type="autonomous" from="L10" to="L5" depart="603"/>
    <trip id="veh_407" type="normal" from="L2" to="L9" depart="605"/>
    <trip id="veh_408" type="autonomous" from="L6" to="L3" depart="607"/>
    <trip id="veh_409" type="autonomous" from="L2" to="L5" depart="608"/>
    <trip id="veh_410" type="autonomous" from="A7" to="L9" depart="610"/>
    <trip id="veh_411" type="autonomous" from="L8" to="L1" depart="611"/>
    <trip id="veh_412" type="normal" from="A7" to="A1" depart="612"/>