<?xml version="1.0" encoding="UTF-8"?>

<!-- generated on 2024-03-26 17:09:59 by Eclipse SUMO netedit Version 1.19.0
<configuration xmlns:xsi="http://www.w3.org/2001/XMLSchema-instance" xsi:noNamespaceSchemaLocation="http://sumo.dlr.de/xsd/neteditConfiguration.xsd">

    <input>
        <sumocfg-file value="tJunction.sumocfg"/>
        <additional-files value=""/>
        <route-files value="tjunction.rou.xml"/>
        <sumo-net-file value="tjunction.net.xml"/>
    </input>

    <output>
        <output-file value="tjunction.net.xml"/>
    </output>

    <processing>
        <geometry.min-radius.fix.railways value="false"/>
        <geometry.max-grade.fix value="false"/>
        <offset.disable-normalization value="true"/>
        <lefthand value="0"/>
    </processing>

    <junctions>
        <no-turnarounds value="true"/>
        <junctions.corner-detail value="5"/>
        <junctions.limit-turn-speed value="5.50"/>
        <rectangular-lane-cut value="0"/>
    </junctions>

    <pedestrian>
        <walkingareas value="0"/>
    </pedestrian>

    <netedit>
        <ignore.routeelements value="false"/>
    </netedit>

</configuration>
-->

<net version="1.16" junctionCornerDetail="5" limitTurnSpeed="5.50" xmlns:xsi="http://www.w3.org/2001/XMLSchema-instance" xsi:noNamespaceSchemaLocation="http://sumo.dlr.de/xsd/net_file.xsd">

    <location netOffset="0.00,0.00" convBoundary="-400.00,-100.00,400.00,100.00" origBoundary="-10000000000.00,-10000000000.00,10000000000.00,10000000000.00" projParameter="!"/>

    <edge id=":J0_0" function="internal">
        <lane id=":J0_0_0" index="0" speed="6.51" length="9.03" shape="-1.60,10.40 -1.95,7.95 -3.00,6.20 -4.75,5.15 -7.20,4.80"/>
    </edge>
    <edge id=":J0_1" function="internal">
        <lane id=":J0_1_0" index="0" speed="13.89" length="20.80" shape="-1.60,10.40 -1.60,-10.40"/>
    </edge>
    <edge id=":J0_2" function="internal">
        <lane id=":J0_2_0" index="0" speed="8.67" length="16.85" shape="-1.60,10.40 -1.05,5.15 0.60,1.40 3.35,-0.85 7.20,-1.60"/>
    </edge>
    <edge id=":J0_3" function="internal">
        <lane id=":J0_3_0" index="0" speed="6.51" length="9.03" shape="7.20,4.80 4.75,5.15 3.00,6.20 1.95,7.95 1.60,10.40"/>
    </edge>
    <edge id=":J0_4" function="internal">
        <lane id=":J0_4_0" index="0" speed="13.89" length="14.40" shape="7.20,4.80 -7.20,4.80"/>
        <lane id=":J0_4_1" index="1" speed="13.89" length="14.40" shape="7.20,1.60 -7.20,1.60"/>
    </edge>
    <edge id=":J0_6" function="internal">
        <lane id=":J0_6_0" index="0" speed="8.67" length="16.85" shape="7.20,1.60 3.35,0.85 0.60,-1.40 -1.05,-5.15 -1.60,-10.40"/>
    </edge>
    <edge id=":J0_7" function="internal">
        <lane id=":J0_7_0" index="0" speed="6.51" length="9.03" shape="1.60,-10.40 1.95,-7.95 3.00,-6.20 4.75,-5.15 7.20,-4.80"/>
    </edge>
    <edge id=":J0_8" function="internal">
        <lane id=":J0_8_0" index="0" speed="13.89" length="20.80" shape="1.60,-10.40 1.60,10.40"/>
    </edge>
    <edge id=":J0_9" function="internal">
        <lane id=":J0_9_0" index="0" speed="8.67" length="16.85" shape="1.60,-10.40 1.05,-5.15 -0.60,-1.40 -3.35,0.85 -7.20,1.60"/>
    </edge>
    <edge id=":J0_10" function="internal">
        <lane id=":J0_10_0" index="0" speed="6.51" length="9.03" shape="-7.20,-4.80 -4.75,-5.15 -3.00,-6.20 -1.95,-7.95 -1.60,-10.40"/>
    </edge>
    <edge id=":J0_11" function="internal">
        <lane id=":J0_11_0" index="0" speed="13.89" length="14.40" shape="-7.20,-4.80 7.20,-4.80"/>
        <lane id=":J0_11_1" index="1" speed="13.89" length="14.40" shape="-7.20,-1.60 7.20,-1.60"/>
    </edge>
    <edge id=":J0_13" function="internal">
        <lane id=":J0_13_0" index="0" speed="8.67" length="16.85" shape="-7.20,-1.60 -3.35,-0.85 -0.60,1.40 1.05,5.15 1.60,10.40"/>
    </edge>
    <edge id=":J1_0" function="internal">
        <lane id=":J1_0_0" index="0" speed="6.51" length="9.03" shape="-201.60,10.40 -201.95,7.95 -203.00,6.20 -204.75,5.15 -207.20,4.80"/>
    </edge>
    <edge id=":J1_1" function="internal">
        <lane id=":J1_1_0" index="0" speed="13.89" length="20.80" shape="-201.60,10.40 -201.60,-10.40"/>
    </edge>
    <edge id=":J1_2" function="internal">
        <lane id=":J1_2_0" index="0" speed="8.67" length="16.85" shape="-201.60,10.40 -201.05,5.15 -199.40,1.40 -196.65,-0.85 -192.80,-1.60"/>
    </edge>
    <edge id=":J1_3" function="internal">
        <lane id=":J1_3_0" index="0" speed="6.51" length="9.03" shape="-192.80,4.80 -195.25,5.15 -197.00,6.20 -198.05,7.95 -198.40,10.40"/>
    </edge>
    <edge id=":J1_4" function="internal">
        <lane id=":J1_4_0" index="0" speed="13.89" length="14.40" shape="-192.80,4.80 -207.20,4.80"/>
        <lane id=":J1_4_1" index="1" speed="13.89" length="14.40" shape="-192.80,1.60 -207.20,1.60"/>
    </edge>
    <edge id=":J1_6" function="internal">
        <lane id=":J1_6_0" index="0" speed="8.67" length="16.85" shape="-192.80,1.60 -196.65,0.85 -199.40,-1.40 -201.05,-5.15 -201.60,-10.40"/>
    </edge>
    <edge id=":J1_7" function="internal">
        <lane id=":J1_7_0" index="0" speed="6.51" length="9.03" shape="-198.40,-10.40 -198.05,-7.95 -197.00,-6.20 -195.25,-5.15 -192.80,-4.80"/>
    </edge>
    <edge id=":J1_8" function="internal">
        <lane id=":J1_8_0" index="0" speed="13.89" length="20.80" shape="-198.40,-10.40 -198.40,10.40"/>
    </edge>
    <edge id=":J1_9" function="internal">
        <lane id=":J1_9_0" index="0" speed="8.67" length="16.85" shape="-198.40,-10.40 -198.95,-5.15 -200.60,-1.40 -203.35,0.85 -207.20,1.60"/>
    </edge>
    <edge id=":J1_10" function="internal">
        <lane id=":J1_10_0" index="0" speed="6.51" length="9.03" shape="-207.20,-4.80 -204.75,-5.15 -203.00,-6.20 -201.95,-7.95 -201.60,-10.40"/>
    </edge>
    <edge id=":J1_11" function="internal">
        <lane id=":J1_11_0" index="0" speed="13.89" length="14.40" shape="-207.20,-4.80 -192.80,-4.80"/>
        <lane id=":J1_11_1" index="1" speed="13.89" length="14.40" shape="-207.20,-1.60 -192.80,-1.60"/>
    </edge>
    <edge id=":J1_13" function="internal">
        <lane id=":J1_13_0" index="0" speed="8.67" length="16.85" shape="-207.20,-1.60 -203.35,-0.85 -200.60,1.40 -198.95,5.15 -198.40,10.40"/>
    </edge>
    <edge id=":J2_0" function="internal">
        <lane id=":J2_0_0" index="0" speed="6.51" length="9.03" shape="198.40,10.40 198.05,7.95 197.00,6.20 195.25,5.15 192.80,4.80"/>
    </edge>
    <edge id=":J2_1" function="internal">
        <lane id=":J2_1_0" index="0" speed="13.89" length="20.80" shape="198.40,10.40 198.40,-10.40"/>
    </edge>
    <edge id=":J2_2" function="internal">
        <lane id=":J2_2_0" index="0" speed="8.67" length="16.85" shape="198.40,10.40 198.95,5.15 200.60,1.40 203.35,-0.85 207.20,-1.60"/>
    </edge>
    <edge id=":J2_3" function="internal">
        <lane id=":J2_3_0" index="0" speed="6.51" length="9.03" shape="207.20,4.80 204.75,5.15 203.00,6.20 201.95,7.95 201.60,10.40"/>
    </edge>
    <edge id=":J2_4" function="internal">
        <lane id=":J2_4_0" index="0" speed="13.89" length="14.40" shape="207.20,4.80 192.80,4.80"/>
        <lane id=":J2_4_1" index="1" speed="13.89" length="14.40" shape="207.20,1.60 192.80,1.60"/>
    </edge>
    <edge id=":J2_6" function="internal">
        <lane id=":J2_6_0" index="0" speed="8.67" length="16.85" shape="207.20,1.60 203.35,0.85 200.60,-1.40 198.95,-5.15 198.40,-10.40"/>
    </edge>
    <edge id=":J2_7" function="internal">
        <lane id=":J2_7_0" index="0" speed="6.51" length="9.03" shape="201.60,-10.40 201.95,-7.95 203.00,-6.20 204.75,-5.15 207.20,-4.80"/>
    </edge>
    <edge id=":J2_8" function="internal">
        <lane id=":J2_8_0" index="0" speed="13.89" length="20.80" shape="201.60,-10.40 201.60,10.40"/>
    </edge>
    <edge id=":J2_9" function="internal">
        <lane id=":J2_9_0" index="0" speed="8.67" length="16.85" shape="201.60,-10.40 201.05,-5.15 199.40,-1.40 196.65,0.85 192.80,1.60"/>
    </edge>
    <edge id=":J2_10" function="internal">
        <lane id=":J2_10_0" index="0" speed="6.51" length="9.03" shape="192.80,-4.80 195.25,-5.15 197.00,-6.20 198.05,-7.95 198.40,-10.40"/>
    </edge>
    <edge id=":J2_11" function="internal">
        <lane id=":J2_11_0" index="0" speed="13.89" length="14.40" shape="192.80,-4.80 207.20,-4.80"/>
        <lane id=":J2_11_1" index="1" speed="13.89" length="14.40" shape="192.80,-1.60 207.20,-1.60"/>
    </edge>
    <edge id=":J2_13" function="internal">
        <lane id=":J2_13_0" index="0" speed="8.67" length="16.85" shape="192.80,-1.60 196.65,-0.85 199.40,1.40 201.05,5.15 201.60,10.40"/>
    </edge>

    <edge id="A0" from="E0" to="J1" priority="-1">
        <lane id="A0_0" index="0" speed="13.89" length="192.80" shape="-400.00,-4.80 -207.20,-4.80"/>
        <lane id="A0_1" index="1" speed="13.89" length="192.80" shape="-400.00,-1.60 -207.20,-1.60"/>
    </edge>
    <edge id="A1" from="J1" to="E0" priority="-1">
        <lane id="A1_0" index="0" speed="13.89" length="192.80" shape="-207.20,4.80 -400.00,4.80"/>
        <lane id="A1_1" index="1" speed="13.89" length="192.80" shape="-207.20,1.60 -400.00,1.60"/>
    </edge>
    <edge id="A2" from="J1" to="J0" priority="2">
        <lane id="A2_0" index="0" speed="13.89" length="185.60" shape="-192.80,-4.80 -7.20,-4.80"/>
        <lane id="A2_1" index="1" speed="13.89" length="185.60" shape="-192.80,-1.60 -7.20,-1.60"/>
    </edge>
    <edge id="A3" from="J0" to="J1" priority="2">
        <lane id="A3_0" index="0" speed="13.89" length="185.60" shape="-7.20,4.80 -192.80,4.80"/>
        <lane id="A3_1" index="1" speed="13.89" length="185.60" shape="-7.20,1.60 -192.80,1.60"/>
    </edge>
    <edge id="A4" from="J0" to="J2" priority="2">
        <lane id="A4_0" index="0" speed="13.89" length="185.60" shape="7.20,-4.80 192.80,-4.80"/>
        <lane id="A4_1" index="1" speed="13.89" length="185.60" shape="7.20,-1.60 192.80,-1.60"/>
    </edge>
    <edge id="A5" from="J2" to="J0" priority="2">
        <lane id="A5_0" index="0" speed="13.89" length="185.60" shape="192.80,4.80 7.20,4.80"/>
        <lane id="A5_1" index="1" speed="13.89" length="185.60" shape="192.80,1.60 7.20,1.60"/>
    </edge>
    <edge id="A6" from="J2" to="E7" priority="3">
        <lane id="A6_0" index="0" speed="13.89" length="192.80" shape="207.20,-4.80 400.00,-4.80"/>
        <lane id="A6_1" index="1" speed="13.89" length="192.80" shape="207.20,-1.60 400.00,-1.60"/>
    </edge>
    <edge id="A7" from="E7" to="J2" priority="3">
        <lane id="A7_0" index="0" speed="13.89" length="192.80" shape="400.00,4.80 207.20,4.80"/>
        <lane id="A7_1" index="1" speed="13.89" length="192.80" shape="400.00,1.60 207.20,1.60"/>
    </edge>
    <edge id="L0" from="E2" to="J1" priority="-1">
        <lane id="L0_0" index="0" speed="13.89" length="89.60" shape="-201.60,100.00 -201.60,10.40"/>
    </edge>
    <edge id="L1" from="J1" to="E2" priority="-1">
        <lane id="L1_0" index="0" speed="13.89" length="89.60" shape="-198.40,10.40 -198.40,100.00"/>
    </edge>
    <edge id="L10" from="E5" to="J2" priority="-1">
        <lane id="L10_0" index="0" speed="13.89" length="89.60" shape="201.60,-100.00 201.60,-10.40"/>
    </edge>
    <edge id="L11" from="J2" to="E5" priority="-1">
        <lane id="L11_0" index="0" speed="13.89" length="89.60" shape="198.40,-10.40 198.40,-100.00"/>
    </edge>
    <edge id="L2" from="E1" to="J1" priority="-1">
        <lane id="L2_0" index="0" speed="13.89" length="89.60" shape="-198.40,-100.00 -198.40,-10.40"/>
    </edge>
    <edge id="L3" from="J1" to="E1" priority="-1">
        <lane id="L3_0" index="0" speed="13.89" length="89.60" shape="-201.60,-10.40 -201.60,-100.00"/>
    </edge>
    <edge id="L4" from="E4" to="J0" priority="3">
        <lane id="L4_0" index="0" speed="13.89" length="89.60" shape="-1.60,100.00 -1.60,10.40"/>
    </edge>
    <edge id="L5" from="J0" to="E4" priority="3">
        <lane id="L5_0" index="0" speed="13.89" length="89.60" shape="1.60,10.40 1.60,100.00"/>
    </edge>
    <edge id="L6" from="E3" to="J0" priority="-1">
        <lane id="L6_0" index="0" speed="13.89" length="89.60" shape="1.60,-100.00 1.60,-10.40"/>
    </edge>
    <edge id="L7" from="J0" to="E3" priority="-1">
        <lane id="L7_0" index="0" speed="13.89" length="89.60" shape="-1.60,-10.40 -1.60,-100.00"/>
    </edge>
    <edge id="L8" from="E6" to="J2" priority="-1">
        <lane id="L8_0" index="0" speed="13.89" length="89.60" shape="198.40,100.00 198.40,10.40"/>
    </edge>
    <edge id="L9" from="J2" to="E6" priority="-1">
        <lane id="L9_0" index="0" speed="13.89" length="89.60" shape="201.60,10.40 201.60,100.00"/>
    </edge>

    <tlLogic id="J0" type="actuated" programID="0" offset="0">
        <phase duration="1"  state="rrrrrrrrrrrrrr"/>
    </tlLogic>
    <tlLogic id="J1" type="actuated" programID="0" offset="0">
        <phase duration="1"  state="rrrrrrrrrrrrrr"/>
    </tlLogic>
    <tlLogic id="J2" type="static" programID="0" offset="0">
        <phase duration="1"  state="rrrrrrrrrrrrrr"/>
    </tlLogic>

    <junction id="E0" type="dead_end" x="-400.00" y="0.00" incLanes="A1_0 A1_1" intLanes="" shape="-400.00,0.00 -400.00,6.40 -400.00,0.00"/>
    <junction id="E1" type="dead_end" x="-200.00" y="-100.00" incLanes="L3_0" intLanes="" shape="-200.00,-100.00 -203.20,-100.00 -200.00,-100.00"/>
    <junction id="E2" type="dead_end" x="-200.00" y="100.00" incLanes="L1_0" intLanes="" shape="-200.00,100.00 -196.80,100.00 -200.00,100.00"/>
    <junction id="E3" type="dead_end" x="0.00" y="-100.00" incLanes="L7_0" intLanes="" shape="0.00,-100.00 -3.20,-100.00 0.00,-100.00"/>
    <junction id="E4" type="dead_end" x="0.00" y="100.00" incLanes="L5_0" intLanes="" shape="0.00,100.00 3.20,100.00 0.00,100.00"/>
    <junction id="E5" type="dead_end" x="200.00" y="-100.00" incLanes="L11_0" intLanes="" shape="200.00,-100.00 196.80,-100.00 200.00,-100.00"/>
    <junction id="E6" type="dead_end" x="200.00" y="100.00" incLanes="L9_0" intLanes="" shape="200.00,100.00 203.20,100.00 200.00,100.00"/>
    <junction id="E7" type="dead_end" x="400.00" y="0.00" incLanes="A6_0 A6_1" intLanes="" shape="400.00,0.00 400.00,-6.40 400.00,0.00"/>
    <junction id="J0" type="traffic_light" x="0.00" y="0.00" incLanes="L4_0 A5_0 A5_1 L6_0 A2_0 A2_1" intLanes=":J0_0_0 :J0_1_0 :J0_2_0 :J0_3_0 :J0_4_0 :J0_4_1 :J0_6_0 :J0_7_0 :J0_8_0 :J0_9_0 :J0_10_0 :J0_11_0 :J0_11_1 :J0_13_0" shape="-3.20,10.40 3.20,10.40 3.64,8.18 4.20,7.40 4.98,6.84 5.98,6.51 7.20,6.40 7.20,-6.40 4.98,-6.84 4.20,-7.40 3.64,-8.18 3.31,-9.18 3.20,-10.40 -3.20,-10.40 -3.64,-8.18 -4.20,-7.40 -4.98,-6.84 -5.98,-6.51 -7.20,-6.40 -7.20,6.40 -4.98,6.84 -4.20,7.40 -3.64,8.18 -3.31,9.18">
        <request index="0"  response="00000000000000" foes="00000000110000" cont="0"/>
        <request index="1"  response="00000000000000" foes="11111001110000" cont="0"/>
        <request index="2"  response="00000100000000" foes="11100101110000" cont="0"/>
        <request index="3"  response="00000100000000" foes="10000100000000" cont="0"/>
        <request index="4"  response="00001100000111" foes="10001100000111" cont="0"/>
        <request index="5"  response="00001100000111" foes="10001100000111" cont="0"/>
        <request index="6"  response="01111100000110" foes="01111100000110" cont="0"/>
        <request index="7"  response="00000000000000" foes="01100000000000" cont="0"/>
        <request index="8"  response="00000000000000" foes="11100001111100" cont="0"/>
        <request index="9"  response="00000000000010" foes="11100001110010" cont="0"/>
        <request index="10" response="00000000000010" foes="00000001000010" cont="0"/>
        <request index="11" response="00001110000110" foes="00001111000110" cont="0"/>
        <request index="12" response="00001110000110" foes="00001111000110" cont="0"/>
        <request index="13" response="00001100111110" foes="00001100111110" cont="0"/>
    </junction>
    <junction id="J1" type="traffic_light" x="-200.00" y="0.00" incLanes="L0_0 A3_0 A3_1 L2_0 A0_0 A0_1" intLanes=":J1_0_0 :J1_1_0 :J1_2_0 :J1_3_0 :J1_4_0 :J1_4_1 :J1_6_0 :J1_7_0 :J1_8_0 :J1_9_0 :J1_10_0 :J1_11_0 :J1_11_1 :J1_13_0" shape="-203.20,10.40 -196.80,10.40 -196.36,8.18 -195.80,7.40 -195.02,6.84 -194.02,6.51 -192.80,6.40 -192.80,-6.40 -195.02,-6.84 -195.80,-7.40 -196.36,-8.18 -196.69,-9.18 -196.80,-10.40 -203.20,-10.40 -203.64,-8.18 -204.20,-7.40 -204.98,-6.84 -205.98,-6.51 -207.20,-6.40 -207.20,6.40 -204.98,6.84 -204.20,7.40 -203.64,8.18 -203.31,9.18">
        <request index="0"  response="00000000110000" foes="00000000110000" cont="0"/>
        <request index="1"  response="11110001110000" foes="11111001110000" cont="0"/>
        <request index="2"  response="11100101110000" foes="11100101110000" cont="0"/>
        <request index="3"  response="00000000000000" foes="10000100000000" cont="0"/>
        <request index="4"  response="00000000000000" foes="10001100000111" cont="0"/>
        <request index="5"  response="00000000000000" foes="10001100000111" cont="0"/>
        <request index="6"  response="01110000000000" foes="01111100000110" cont="0"/>
        <request index="7"  response="01100000000000" foes="01100000000000" cont="0"/>
        <request index="8"  response="11100001111000" foes="11100001111100" cont="0"/>
        <request index="9"  response="11100001110010" foes="11100001110010" cont="0"/>
        <request index="10" response="00000000000000" foes="00000001000010" cont="0"/>
        <request index="11" response="00000000000000" foes="00001111000110" cont="0"/>
        <request index="12" response="00000000000000" foes="00001111000110" cont="0"/>
        <request index="13" response="00000000111000" foes="00001100111110" cont="0"/>
    </junction>
    <junction id="J2" type="traffic_light" x="200.00" y="0.00" incLanes="L8_0 A7_0 A7_1 L10_0 A4_0 A4_1" intLanes=":J2_0_0 :J2_1_0 :J2_2_0 :J2_3_0 :J2_4_0 :J2_4_1 :J2_6_0 :J2_7_0 :J2_8_0 :J2_9_0 :J2_10_0 :J2_11_0 :J2_11_1 :J2_13_0" shape="196.80,10.40 203.20,10.40 203.64,8.18 204.20,7.40 204.98,6.84 205.98,6.51 207.20,6.40 207.20,-6.40 204.98,-6.84 204.20,-7.40 203.64,-8.18 203.31,-9.18 203.20,-10.40 196.80,-10.40 196.36,-8.18 195.80,-7.40 195.02,-6.84 194.02,-6.51 192.80,-6.40 192.80,6.40 195.02,6.84 195.80,7.40 196.36,8.18 196.69,9.18">
        <request index="0"  response="00000000110000" foes="00000000110000" cont="0"/>
        <request index="1"  response="11110001110000" foes="11111001110000" cont="0"/>
        <request index="2"  response="11100101110000" foes="11100101110000" cont="0"/>
        <request index="3"  response="00000000000000" foes="10000100000000" cont="0"/>
        <request index="4"  response="00000000000000" foes="10001100000111" cont="0"/>
        <request index="5"  response="00000000000000" foes="10001100000111" cont="0"/>
        <request index="6"  response="01110000000000" foes="01111100000110" cont="0"/>
        <request index="7"  response="01100000000000" foes="01100000000000" cont="0"/>
        <request index="8"  response="11100001111000" foes="11100001111100" cont="0"/>
        <request index="9"  response="11100001110010" foes="11100001110010" cont="0"/>
        <request index="10" response="00000000000000" foes="00000001000010" cont="0"/>
        <request index="11" response="00000000000000" foes="00001111000110" cont="0"/>
        <request index="12" response="00000000000000" foes="00001111000110" cont="0"/>
        <request index="13" response="00000000111000" foes="00001100111110" cont="0"/>
    </junction>

    <connection from="A0" to="L3" fromLane="0" toLane="0" via=":J1_10_0" tl="J1" linkIndex="10" dir="r" state="O"/>
    <connection from="A0" to="A2" fromLane="0" toLane="0" via=":J1_11_0" tl="J1" linkIndex="11" dir="s" state="O"/>
    <connection from="A0" to="A2" fromLane="1" toLane="1" via=":J1_11_1" tl="J1" linkIndex="12" dir="s" state="O"/>
    <connection from="A0" to="L1" fromLane="1" toLane="0" via=":J1_13_0" tl="J1" linkIndex="13" dir="l" state="o"/>
    <connection from="A2" to="L7" fromLane="0" toLane="0" via=":J0_10_0" tl="J0" linkIndex="10" dir="r" state="o"/>
    <connection from="A2" to="A4" fromLane="0" toLane="0" via=":J0_11_0" tl="J0" linkIndex="11" dir="s" state="o"/>
    <connection from="A2" to="A4" fromLane="1" toLane="1" via=":J0_11_1" tl="J0" linkIndex="12" dir="s" state="o"/>
    <connection from="A2" to="L5" fromLane="1" toLane="0" via=":J0_13_0" tl="J0" linkIndex="13" dir="l" state="o"/>
    <connection from="A3" to="L1" fromLane="0" toLane="0" via=":J1_3_0" tl="J1" linkIndex="3" dir="r" state="O"/>
    <connection from="A3" to="A1" fromLane="0" toLane="0" via=":J1_4_0" tl="J1" linkIndex="4" dir="s" state="O"/>
    <connection from="A3" to="A1" fromLane="1" toLane="1" via=":J1_4_1" tl="J1" linkIndex="5" dir="s" state="O"/>
    <connection from="A3" to="L3" fromLane="1" toLane="0" via=":J1_6_0" tl="J1" linkIndex="6" dir="l" state="o"/>
    <connection from="A4" to="L11" fromLane="0" toLane="0" via=":J2_10_0" tl="J2" linkIndex="10" dir="r" state="O"/>
    <connection from="A4" to="A6" fromLane="0" toLane="0" via=":J2_11_0" tl="J2" linkIndex="11" dir="s" state="O"/>
    <connection from="A4" to="A6" fromLane="1" toLane="1" via=":J2_11_1" tl="J2" linkIndex="12" dir="s" state="O"/>
    <connection from="A4" to="L9" fromLane="1" toLane="0" via=":J2_13_0" tl="J2" linkIndex="13" dir="l" state="o"/>
    <connection from="A5" to="L5" fromLane="0" toLane="0" via=":J0_3_0" tl="J0" linkIndex="3" dir="r" state="o"/>
    <connection from="A5" to="A3" fromLane="0" toLane="0" via=":J0_4_0" tl="J0" linkIndex="4" dir="s" state="o"/>
    <connection from="A5" to="A3" fromLane="1" toLane="1" via=":J0_4_1" tl="J0" linkIndex="5" dir="s" state="o"/>
    <connection from="A5" to="L7" fromLane="1" toLane="0" via=":J0_6_0" tl="J0" linkIndex="6" dir="l" state="o"/>
    <connection from="A7" to="L9" fromLane="0" toLane="0" via=":J2_3_0" tl="J2" linkIndex="3" dir="r" state="O"/>
    <connection from="A7" to="A5" fromLane="0" toLane="0" via=":J2_4_0" tl="J2" linkIndex="4" dir="s" state="O"/>
    <connection from="A7" to="A5" fromLane="1" toLane="1" via=":J2_4_1" tl="J2" linkIndex="5" dir="s" state="O"/>
    <connection from="A7" to="L11" fromLane="1" toLane="0" via=":J2_6_0" tl="J2" linkIndex="6" dir="l" state="o"/>
    <connection from="L0" to="A1" fromLane="0" toLane="0" via=":J1_0_0" tl="J1" linkIndex="0" dir="r" state="o"/>
    <connection from="L0" to="L3" fromLane="0" toLane="0" via=":J1_1_0" tl="J1" linkIndex="1" dir="s" state="o"/>
    <connection from="L0" to="A2" fromLane="0" toLane="1" via=":J1_2_0" tl="J1" linkIndex="2" dir="l" state="o"/>
    <connection from="L10" to="A6" fromLane="0" toLane="0" via=":J2_7_0" tl="J2" linkIndex="7" dir="r" state="o"/>
    <connection from="L10" to="L9" fromLane="0" toLane="0" via=":J2_8_0" tl="J2" linkIndex="8" dir="s" state="o"/>
    <connection from="L10" to="A5" fromLane="0" toLane="1" via=":J2_9_0" tl="J2" linkIndex="9" dir="l" state="o"/>
    <connection from="L2" to="A2" fromLane="0" toLane="0" via=":J1_7_0" tl="J1" linkIndex="7" dir="r" state="o"/>
    <connection from="L2" to="L1" fromLane="0" toLane="0" via=":J1_8_0" tl="J1" linkIndex="8" dir="s" state="o"/>
    <connection from="L2" to="A1" fromLane="0" toLane="1" via=":J1_9_0" tl="J1" linkIndex="9" dir="l" state="o"/>
    <connection from="L4" to="A3" fromLane="0" toLane="0" via=":J0_0_0" tl="J0" linkIndex="0" dir="r" state="O"/>
    <connection from="L4" to="L7" fromLane="0" toLane="0" via=":J0_1_0" tl="J0" linkIndex="1" dir="s" state="O"/>
    <connection from="L4" to="A4" fromLane="0" toLane="1" via=":J0_2_0" tl="J0" linkIndex="2" dir="l" state="o"/>
    <connection from="L6" to="A4" fromLane="0" toLane="0" via=":J0_7_0" tl="J0" linkIndex="7" dir="r" state="O"/>
    <connection from="L6" to="L5" fromLane="0" toLane="0" via=":J0_8_0" tl="J0" linkIndex="8" dir="s" state="O"/>
    <connection from="L6" to="A3" fromLane="0" toLane="1" via=":J0_9_0" tl="J0" linkIndex="9" dir="l" state="o"/>
    <connection from="L8" to="A5" fromLane="0" toLane="0" via=":J2_0_0" tl="J2" linkIndex="0" dir="r" state="o"/>
    <connection from="L8" to="L11" fromLane="0" toLane="0" via=":J2_1_0" tl="J2" linkIndex="1" dir="s" state="o"/>
    <connection from="L8" to="A6" fromLane="0" toLane="1" via=":J2_2_0" tl="J2" linkIndex="2" dir="l" state="o"/>

    <connection from=":J0_0" to="A3" fromLane="0" toLane="0" dir="r" state="M"/>
    <connection from=":J0_1" to="L7" fromLane="0" toLane="0" dir="s" state="M"/>
    <connection from=":J0_2" to="A4" fromLane="0" toLane="1" dir="l" state="M"/>
    <connection from=":J0_3" to="L5" fromLane="0" toLane="0" dir="r" state="M"/>
    <connection from=":J0_4" to="A3" fromLane="0" toLane="0" dir="s" state="M"/>
    <connection from=":J0_4" to="A3" fromLane="1" toLane="1" dir="s" state="M"/>
    <connection from=":J0_6" to="L7" fromLane="0" toLane="0" dir="l" state="M"/>
    <connection from=":J0_7" to="A4" fromLane="0" toLane="0" dir="r" state="M"/>
    <connection from=":J0_8" to="L5" fromLane="0" toLane="0" dir="s" state="M"/>
    <connection from=":J0_9" to="A3" fromLane="0" toLane="1" dir="l" state="M"/>
    <connection from=":J0_10" to="L7" fromLane="0" toLane="0" dir="r" state="M"/>
    <connection from=":J0_11" to="A4" fromLane="0" toLane="0" dir="s" state="M"/>
    <connection from=":J0_11" to="A4" fromLane="1" toLane="1" dir="s" state="M"/>
    <connection from=":J0_13" to="L5" fromLane="0" toLane="0" dir="l" state="M"/>
    <connection from=":J1_0" to="A1" fromLane="0" toLane="0" dir="r" state="M"/>
    <connection from=":J1_1" to="L3" fromLane="0" toLane="0" dir="s" state="M"/>
    <connection from=":J1_2" to="A2" fromLane="0" toLane="1" dir="l" state="M"/>
    <connection from=":J1_3" to="L1" fromLane="0" toLane="0" dir="r" state="M"/>
    <connection from=":J1_4" to="A1" fromLane="0" toLane="0" dir="s" state="M"/>
    <connection from=":J1_4" to="A1" fromLane="1" toLane="1" dir="s" state="M"/>
    <connection from=":J1_6" to="L3" fromLane="0" toLane="0" dir="l" state="M"/>
    <connection from=":J1_7" to="A2" fromLane="0" toLane="0" dir="r" state="M"/>
    <connection from=":J1_8" to="L1" fromLane="0" toLane="0" dir="s" state="M"/>
    <connection from=":J1_9" to="A1" fromLane="0" toLane="1" dir="l" state="M"/>
    <connection from=":J1_10" to="L3" fromLane="0" toLane="0" dir="r" state="M"/>
    <connection from=":J1_11" to="A2" fromLane="0" toLane="0" dir="s" state="M"/>
    <connection from=":J1_11" to="A2" fromLane="1" toLane="1" dir="s" state="M"/>
    <connection from=":J1_13" to="L1" fromLane="0" toLane="0" dir="l" state="M"/>
    <connection from=":J2_0" to="A5" fromLane="0" toLane="0" dir="r" state="M"/>
    <connection from=":J2_1" to="L11" fromLane="0" toLane="0" dir="s" state="M"/>
    <connection from=":J2_2" to="A6" fromLane="0" toLane="1" dir="l" state="M"/>
    <connection from=":J2_3" to="L9" fromLane="0" toLane="0" dir="r" state="M"/>
    <connection from=":J2_4" to="A5" fromLane="0" toLane="0" dir="s" state="M"/>
    <connection from=":J2_4" to="A5" fromLane="1" toLane="1" dir="s" state="M"/>
    <connection from=":J2_6" to="L11" fromLane="0" toLane="0" dir="l" state="M"/>
    <connection from=":J2_7" to="A6" fromLane="0" toLane="0" dir="r" state="M"/>
    <connection from=":J2_8" to="L9" fromLane="0" toLane="0" dir="s" state="M"/>
    <connection from=":J2_9" to="A5" fromLane="0" toLane="1" dir="l" state="M"/>
    <connection from=":J2_10" to="L11" fromLane="0" toLane="0" dir="r" state="M"/>
    <connection from=":J2_11" to="A6" fromLane="0" toLane="0" dir="s" state="M"/>
    <connection from=":J2_11" to="A6" fromLane="1" toLane="1" dir="s" state="M"/>
    <connection from=":J2_13" to="L9" fromLane="0" toLane="0" dir="l" state="M"/>

</net>
