<routes>
    <vType id="car" accel="2.6" decel="4.5" sigma="0.5" length="5" maxSpeed="33.33" guiShape="passenger"/>
    <route id="route_0" edges="L0 L3" />
    <vehicle id="veh_0" type="car" route="route_0" depart="0"/>
    <vehicle id="veh_1" type="car" route="route_0" depart="10"/>
    <vehicle id="veh_2" type="car" route="route_0" depart="20"/>
    <vehicle id="veh_3" type="car" route="route_0" depart="30"/>
    <vehicle id="veh_4" type="car" route="route_0" depart="40"/>
    <vehicle id="veh_5" type="car" route="route_0" depart="50"/>
    <vehicle id="veh_6" type="car" route="route_0" depart="60"/>
    <vehicle id="veh_7" type="car" route="route_0" depart="70"/>
    <vehicle id="veh_8" type="car" route="route_0" depart="80"/>
    <vehicle id="veh_9" type="car" route="route_0" depart="90"/>
    <vehicle id="veh_10" type="car" route="route_0" depart="100"/>
    <vehicle id="veh_11" type="car" route="route_0" depart="110"/>
    <vehicle id="veh_12" type="car" route="route_0" depart="120"/>
    <vehicle id="veh_13" type="car" route="route_0" depart="130"/>
    <vehicle id="veh_14" type="car" route="route_0" depart="140"/>
    <vehicle id="veh_15" type="car" route="route_0" depart="150"/>
    <vehicle id="veh_16" type="car" route="route_0" depart="160"/>
    <vehicle id="veh_17" type="car" route="route_0" depart="170"/>
    <vehicle id="veh_18" type="car" route="route_0" depart="180"/>
    <vehicle id="veh_19" type="car" route="route_0" depart="190"/>
    <vehicle id="veh_20" type="car" route="route_0" depart="200"/>
    <vehicle id="veh_21" type="car" route="route_0" depart="210"/>
    <vehicle id="veh_22" type="car" route="route_0" depart="220"/>
    <vehicle id="veh_23" type="car" route="route_0" depart="230"/>
    <vehicle id="veh_24" type="car" route="route_0" depart="240"/>
    <vehicle id="veh_25" type="car" route="route_0" depart="250"/>
    <vehicle id="veh_26" type="car" route="route_0" depart="260"/>
    <vehicle id="veh_27" type="car" route="route_0" depart="270"/>
    <vehicle id="veh_28" type="car" route="route_0" depart="280"/>
    <vehicle id="veh_29" type="car" route="route_0" depart="290"/>
    <route id="route_1" edges="L0 L5" />
    <vehicle id="veh_30" type="car" route="route_1" depart="0"/>
    <vehicle id="veh_31" type="car" route="route_1" depart="10"/>
    <vehicle id="veh_32" type="car" route="route_1" depart="20"/>
    <vehicle id="veh_33" type="car" route="route_1" depart="30"/>
    <vehicle id="veh_34" type="car" route="route_1" depart="40"/>
    <vehicle id="veh_35" type="car" route="route_1" depart="50"/>
    <vehicle id="veh_36" type="car" route="route_1" depart="60"/>
    <vehicle id="veh_37" type="car" route="route_1" depart="70"/>
    <vehicle id="veh_38" type="car" route="route_1" depart="80"/>
    <vehicle id="veh_39" type="car" route="route_1" depart="90"/>
    <vehicle id="veh_40" type="car" route="route_1" depart="100"/>
    <vehicle id="veh_41" type="car" route="route_1" depart="110"/>
    <vehicle id="veh_42" type="car" route="route_1" depart="120"/>
    <vehicle id="veh_43" type="car" route="route_1" depart="130"/>
    <vehicle id="veh_44" type="car" route="route_1" depart="140"/>
    <vehicle id="veh_45" type="car" route="route_1" depart="150"/>
    <vehicle id="veh_46" type="car" route="route_1" depart="160"/>
    <vehicle id="veh_47" type="car" route="route_1" depart="170"/>
    <vehicle id="veh_48" type="car" route="route_1" depart="180"/>
    <vehicle id="veh_49" type="car" route="route_1" depart="190"/>
    <vehicle id="veh_50" type="car" route="route_1" depart="200"/>
    <vehicle id="veh_51" type="car" route="route_1" depart="210"/>
    <vehicle id="veh_52" type="car" route="route_1" depart="220"/>
    <vehicle id="veh_53" type="car" route="route_1" depart="230"/>
    <vehicle id="veh_54" type="car" route="route_1" depart="240"/>
    <vehicle id="veh_55" type="car" route="route_1" depart="250"/>
    <vehicle id="veh_56" type="car" route="route_1" depart="260"/>
    <vehicle id="veh_57" type="car" route="route_1" depart="270"/>
    <vehicle id="veh_58" type="car" route="route_1" depart="280"/>
    <vehicle id="veh_59" type="car" route="route_1" depart="290"/>
    <route id="route_2" edges="L2 L1" />
    <vehicle id="veh_60" type="car" route="route_2" depart="0"/>
    <vehicle id="veh_61" type="car" route="route_2" depart="10"/>
    <vehicle id="veh_62" type="car" route="route_2" depart="20"/>
    <vehicle id="veh_63" type="car" route="route_2" depart="30"/>
    <vehicle id="veh_64" type="car" route="route_2" depart="40"/>
    <vehicle id="veh_65" type="car" route="route_2" depart="50"/>
    <vehicle id="veh_66" type="car" route="route_2" depart="60"/>
    <vehicle id="veh_67" type="car" route="route_2" depart="70"/>
    <vehicle id="veh_68" type="car" route="route_2" depart="80"/>
    <vehicle id="veh_69" type="car" route="route_2" depart="90"/>
    <vehicle id="veh_70" type="car" route="route_2" depart="100"/>
    <vehicle id="veh_71" type="car" route="route_2" depart="110"/>
    <vehicle id="veh_72" type="car" route="route_2" depart="120"/>
    <vehicle id="veh_73" type="car" route="route_2" depart="130"/>
    <vehicle id="veh_74" type="car" route="route_2" depart="140"/>
    <vehicle id="veh_75" type="car" route="route_2" depart="150"/>
    <vehicle id="veh_76" type="car" route="route_2" depart="160"/>
    <vehicle id="veh_77" type="car" route="route_2" depart="170"/>
    <vehicle id="veh_78" type="car" route="route_2" depart="180"/>
    <vehicle id="veh_79" type="car" route="route_2" depart="190"/>
    <vehicle id="veh_80" type="car" route="route_2" depart="200"/>
    <vehicle id="veh_81" type="car" route="route_2" depart="210"/>
    <vehicle id="veh_82" type="car" route="route_2" depart="220"/>
    <vehicle id="veh_83" type="car" route="route_2" depart="230"/>
    <vehicle id="veh_84" type="car" route="route_2" depart="240"/>
    <vehicle id="veh_85" type="car" route="route_2" depart="250"/>
    <vehicle id="veh_86" type="car" route="route_2" depart="260"/>
    <vehicle id="veh_87" type="car" route="route_2" depart="270"/>
    <vehicle id="veh_88" type="car" route="route_2" depart="280"/>
    <vehicle id="veh_89" type="car" route="route_2" depart="290"/>
    <route id="route_3" edges="L2 L5" />
    <vehicle id="veh_90" type="car" route="route_3" depart="0"/>
    <vehicle id="veh_91" type="car" route="route_3" depart="10"/>
    <vehicle id="veh_92" type="car" route="route_3" depart="20"/>
    <vehicle id="veh_93" type="car" route="route_3" depart="30"/>
    <vehicle id="veh_94" type="car" route="route_3" depart="40"/>
    <vehicle id="veh_95" type="car" route="route_3" depart="50"/>
    <vehicle id="veh_96" type="car" route="route_3" depart="60"/>
    <vehicle id="veh_97" type="car" route="route_3" depart="70"/>
    <vehicle id="veh_98" type="car" route="route_3" depart="80"/>
    <vehicle id="veh_99" type="car" route="route_3" depart="90"/>
    <vehicle id="veh_100" type="car" route="route_3" depart="100"/>
    <vehicle id="veh_101" type="car" route="route_3" depart="110"/>
    <vehicle id="veh_102" type="car" route="route_3" depart="120"/>
    <vehicle id="veh_103" type="car" route="route_3" depart="130"/>
    <vehicle id="veh_104" type="car" route="route_3" depart="140"/>
    <vehicle id="veh_105" type="car" route="route_3" depart="150"/>
    <vehicle id="veh_106" type="car" route="route_3" depart="160"/>
    <vehicle id="veh_107" type="car" route="route_3" depart="170"/>
    <vehicle id="veh_108" type="car" route="route_3" depart="180"/>
    <vehicle id="veh_109" type="car" route="route_3" depart="190"/>
    <vehicle id="veh_110" type="car" route="route_3" depart="200"/>
    <vehicle id="veh_111" type="car" route="route_3" depart="210"/>
    <vehicle id="veh_112" type="car" route="route_3" depart="220"/>
    <vehicle id="veh_113" type="car" route="route_3" depart="230"/>
    <vehicle id="veh_114" type="car" route="route_3" depart="240"/>
    <vehicle id="veh_115" type="car" route="route_3" depart="250"/>
    <vehicle id="veh_116" type="car" route="route_3" depart="260"/>
    <vehicle id="veh_117" type="car" route="route_3" depart="270"/>
    <vehicle id="veh_118" type="car" route="route_3" depart="280"/>
    <vehicle id="veh_119" type="car" route="route_3" depart="290"/>
    <route id="route_4" edges="L4 L1" />
    <vehicle id="veh_120" type="car" route="route_4" depart="0"/>
    <vehicle id="veh_121" type="car" route="route_4" depart="10"/>
    <vehicle id="veh_122" type="car" route="route_4" depart="20"/>
    <vehicle id="veh_123" type="car" route="route_4" depart="30"/>
    <vehicle id="veh_124" type="car" route="route_4" depart="40"/>
    <vehicle id="veh_125" type="car" route="route_4" depart="50"/>
    <vehicle id="veh_126" type="car" route="route_4" depart="60"/>
    <vehicle id="veh_127" type="car" route="route_4" depart="70"/>
    <vehicle id="veh_128" type="car" route="route_4" depart="80"/>
    <vehicle id="veh_129" type="car" route="route_4" depart="90"/>
    <vehicle id="veh_130" type="car" route="route_4" depart="100"/>
    <vehicle id="veh_131" type="car" route="route_4" depart="110"/>
    <vehicle id="veh_132" type="car" route="route_4" depart="120"/>
    <vehicle id="veh_133" type="car" route="route_4" depart="130"/>
    <vehicle id="veh_134" type="car" route="route_4" depart="140"/>
    <vehicle id="veh_135" type="car" route="route_4" depart="150"/>
    <vehicle id="veh_136" type="car" route="route_4" depart="160"/>
    <vehicle id="veh_137" type="car" route="route_4" depart="170"/>
    <vehicle id="veh_138" type="car" route="route_4" depart="180"/>
    <vehicle id="veh_139" type="car" route="route_4" depart="190"/>
    <vehicle id="veh_140" type="car" route="route_4" depart="200"/>
    <vehicle id="veh_141" type="car" route="route_4" depart="210"/>
    <vehicle id="veh_142" type="car" route="route_4" depart="220"/>
    <vehicle id="veh_143" type="car" route="route_4" depart="230"/>
    <vehicle id="veh_144" type="car" route="route_4" depart="240"/>
    <vehicle id="veh_145" type="car" route="route_4" depart="250"/>
    <vehicle id="veh_146" type="car" route="route_4" depart="260"/>
    <vehicle id="veh_147" type="car" route="route_4" depart="270"/>
    <vehicle id="veh_148" type="car" route="route_4" depart="280"/>
    <vehicle id="veh_149" type="car" route="route_4" depart="290"/>
    <route id="route_5" edges="L4 L3" />
    <vehicle id="veh_150" type="car" route="route_5" depart="0"/>
    <vehicle id="veh_151" type="car" route="route_5" depart="10"/>
    <vehicle id="veh_152" type="car" route="route_5" depart="20"/>
    <vehicle id="veh_153" type="car" route="route_5" depart="30"/>
    <vehicle id="veh_154" type="car" route="route_5" depart="40"/>
    <vehicle id="veh_155" type="car" route="route_5" depart="50"/>
    <vehicle id="veh_156" type="car" route="route_5" depart="60"/>
    <vehicle id="veh_157" type="car" route="route_5" depart="70"/>
    <vehicle id="veh_158" type="car" route="route_5" depart="80"/>
    <vehicle id="veh_159" type="car" route="route_5" depart="90"/>
    <vehicle id="veh_160" type="car" route="route_5" depart="100"/>
    <vehicle id="veh_161" type="car" route="route_5" depart="110"/>
    <vehicle id="veh_162" type="car" route="route_5" depart="120"/>
    <vehicle id="veh_163" type="car" route="route_5" depart="130"/>
    <vehicle id="veh_164" type="car" route="route_5" depart="140"/>
    <vehicle id="veh_165" type="car" route="route_5" depart="150"/>
    <vehicle id="veh_166" type="car" route="route_5" depart="160"/>
    <vehicle id="veh_167" type="car" route="route_5" depart="170"/>
    <vehicle id="veh_168" type="car" route="route_5" depart="180"/>
    <vehicle id="veh_169" type="car" route="route_5" depart="190"/>
    <vehicle id="veh_170" type="car" route="route_5" depart="200"/>
    <vehicle id="veh_171" type="car" route="route_5" depart="210"/>
    <vehicle id="veh_172" type="car" route="route_5" depart="220"/>
    <vehicle id="veh_173" type="car" route="route_5" depart="230"/>
    <vehicle id="veh_174" type="car" route="route_5" depart="240"/>
    <vehicle id="veh_175" type="car" route="route_5" depart="250"/>
    <vehicle id="veh_176" type="car" route="route_5" depart="260"/>
    <vehicle id="veh_177" type="car" route="route_5" depart="270"/>
    <vehicle id="veh_178" type="car" route="route_5" depart="280"/>
    <vehicle id="veh_179" type="car" route="route_5" depart="290"/>
</routes>