<?xml version="1.0" encoding="UTF-8"?>

<!-- generated on 2024-03-05 09:27:40 by Eclipse SUMO netedit Version 1.19.0
<configuration xmlns:xsi="http://www.w3.org/2001/XMLSchema-instance" xsi:noNamespaceSchemaLocation="http://sumo.dlr.de/xsd/neteditConfiguration.xsd">

    <input>
        <sumocfg-file value="tJunction.sumocfg"/>
        <additional-files value=""/>
        <route-files value="tjunction.rou.xml"/>
        <sumo-net-file value="tjunction.net.xml"/>
    </input>

    <output>
        <output-file value="tjunction.net.xml"/>
    </output>

    <processing>
        <geometry.min-radius.fix.railways value="false"/>
        <geometry.max-grade.fix value="false"/>
        <offset.disable-normalization value="true"/>
        <lefthand value="0"/>
    </processing>

    <junctions>
        <no-turnarounds value="true"/>
        <junctions.corner-detail value="5"/>
        <junctions.limit-turn-speed value="5.50"/>
        <rectangular-lane-cut value="0"/>
    </junctions>

    <pedestrian>
        <walkingareas value="0"/>
    </pedestrian>

    <netedit>
        <ignore.routeelements value="false"/>
    </netedit>

</configuration>
-->

<net version="1.16" junctionCornerDetail="5" limitTurnSpeed="5.50" xmlns:xsi="http://www.w3.org/2001/XMLSchema-instance" xsi:noNamespaceSchemaLocation="http://sumo.dlr.de/xsd/net_file.xsd">

    <location netOffset="0.00,0.00" convBoundary="-200.00,-108.58,200.00,100.00" origBoundary="-10000000000.00,-10000000000.00,10000000000.00,10000000000.00" projParameter="!"/>

    <edge id=":J0_0" function="internal">
        <lane id=":J0_0_0" index="0" speed="6.51" length="9.03" shape="-1.60,7.20 -1.95,4.75 -3.00,3.00 -4.75,1.95 -7.20,1.60"/>
    </edge>
    <edge id=":J0_1" function="internal">
        <lane id=":J0_1_0" index="0" speed="13.89" length="14.40" shape="-1.60,7.20 -1.60,-7.20"/>
    </edge>
    <edge id=":J0_2" function="internal">
        <lane id=":J0_2_0" index="0" speed="8.00" length="4.07" shape="-1.60,7.20 -1.05,3.35 -0.96,3.20"/>
    </edge>
    <edge id=":J0_12" function="internal">
        <lane id=":J0_12_0" index="0" speed="8.00" length="10.13" shape="-0.96,3.20 0.60,0.60 3.35,-1.05 7.20,-1.60"/>
    </edge>
    <edge id=":J0_3" function="internal">
        <lane id=":J0_3_0" index="0" speed="6.51" length="9.03" shape="7.20,1.60 4.75,1.95 3.00,3.00 1.95,4.75 1.60,7.20"/>
    </edge>
    <edge id=":J0_4" function="internal">
        <lane id=":J0_4_0" index="0" speed="13.89" length="14.40" shape="7.20,1.60 -7.20,1.60"/>
    </edge>
    <edge id=":J0_5" function="internal">
        <lane id=":J0_5_0" index="0" speed="8.00" length="4.07" shape="7.20,1.60 3.35,1.05 3.20,0.96"/>
    </edge>
    <edge id=":J0_13" function="internal">
        <lane id=":J0_13_0" index="0" speed="8.00" length="10.13" shape="3.20,0.96 0.60,-0.60 -1.05,-3.35 -1.60,-7.20"/>
    </edge>
    <edge id=":J0_6" function="internal">
        <lane id=":J0_6_0" index="0" speed="6.51" length="9.03" shape="1.60,-7.20 1.95,-4.75 3.00,-3.00 4.75,-1.95 7.20,-1.60"/>
    </edge>
    <edge id=":J0_7" function="internal">
        <lane id=":J0_7_0" index="0" speed="13.89" length="14.40" shape="1.60,-7.20 1.60,7.20"/>
    </edge>
    <edge id=":J0_8" function="internal">
        <lane id=":J0_8_0" index="0" speed="8.00" length="4.07" shape="1.60,-7.20 1.05,-3.35 0.96,-3.20"/>
    </edge>
    <edge id=":J0_14" function="internal">
        <lane id=":J0_14_0" index="0" speed="8.00" length="10.13" shape="0.96,-3.20 -0.60,-0.60 -3.35,1.05 -7.20,1.60"/>
    </edge>
    <edge id=":J0_9" function="internal">
        <lane id=":J0_9_0" index="0" speed="6.51" length="9.03" shape="-7.20,-1.60 -4.75,-1.95 -3.00,-3.00 -1.95,-4.75 -1.60,-7.20"/>
    </edge>
    <edge id=":J0_10" function="internal">
        <lane id=":J0_10_0" index="0" speed="13.89" length="14.40" shape="-7.20,-1.60 7.20,-1.60"/>
    </edge>
    <edge id=":J0_11" function="internal">
        <lane id=":J0_11_0" index="0" speed="8.00" length="4.07" shape="-7.20,-1.60 -3.35,-1.05 -3.20,-0.96"/>
    </edge>
    <edge id=":J0_15" function="internal">
        <lane id=":J0_15_0" index="0" speed="8.00" length="10.13" shape="-3.20,-0.96 -0.60,0.60 1.05,3.35 1.60,7.20"/>
    </edge>

    <edge id="L0" from="1" to="J0" priority="2">
        <lane id="L0_0" index="0" speed="13.89" length="192.80" shape="-200.00,-1.60 -7.20,-1.60"/>
    </edge>
    <edge id="L1" from="J0" to="1" priority="2">
        <lane id="L1_0" index="0" speed="13.89" length="192.80" shape="-7.20,1.60 -200.00,1.60"/>
    </edge>
    <edge id="L2" from="2" to="J0" priority="3">
        <lane id="L2_0" index="0" speed="13.89" length="92.80" shape="-1.60,100.00 -1.60,7.20"/>
    </edge>
    <edge id="L3" from="J0" to="2" priority="3">
        <lane id="L3_0" index="0" speed="13.89" length="92.80" shape="1.60,7.20 1.60,100.00"/>
    </edge>
    <edge id="L4" from="3" to="J0" priority="2">
        <lane id="L4_0" index="0" speed="13.89" length="192.80" shape="200.00,1.60 7.20,1.60"/>
    </edge>
    <edge id="L5" from="J0" to="3" priority="2">
        <lane id="L5_0" index="0" speed="13.89" length="192.80" shape="7.20,-1.60 200.00,-1.60"/>
    </edge>
    <edge id="L6" from="J1" to="J0" priority="-1">
        <lane id="L6_0" index="0" speed="13.89" length="101.38" shape="1.62,-108.58 1.60,-7.20"/>
    </edge>
    <edge id="L7" from="J0" to="J1" priority="-1">
        <lane id="L7_0" index="0" speed="13.89" length="101.38" shape="-1.60,-7.20 -1.58,-108.58"/>
    </edge>

    <tlLogic id="J1" type="static" programID="0" offset="0">
        <phase duration="42" state="GGgrrrGGgrrr"/>
        <phase duration="3"  state="yyyrrryyyrrr"/>
        <phase duration="42" state="rrrGGgrrrGGg"/>
        <phase duration="3"  state="rrryyyrrryyy"/>
    </tlLogic>

    <junction id="1" type="dead_end" x="-200.00" y="0.00" incLanes="L1_0" intLanes="" shape="-200.00,0.00 -200.00,3.20 -200.00,0.00"/>
    <junction id="2" type="dead_end" x="0.00" y="100.00" incLanes="L3_0" intLanes="" shape="0.00,100.00 3.20,100.00 0.00,100.00"/>
    <junction id="3" type="dead_end" x="200.00" y="0.00" incLanes="L5_0" intLanes="" shape="200.00,0.00 200.00,-3.20 200.00,0.00"/>
    <junction id="J0" type="traffic_light" x="0.00" y="0.00" incLanes="L2_0 L4_0 L6_0 L0_0" intLanes=":J0_0_0 :J0_1_0 :J0_12_0 :J0_3_0 :J0_4_0 :J0_13_0 :J0_6_0 :J0_7_0 :J0_14_0 :J0_9_0 :J0_10_0 :J0_15_0" shape="-3.20,7.20 3.20,7.20 3.64,4.98 4.20,4.20 4.98,3.64 5.98,3.31 7.20,3.20 7.20,-3.20 4.98,-3.64 4.20,-4.20 3.65,-4.98 3.31,-5.98 3.20,-7.20 -3.20,-7.20 -3.64,-4.98 -4.20,-4.20 -4.98,-3.64 -5.98,-3.31 -7.20,-3.20 -7.20,3.20 -4.98,3.64 -4.20,4.20 -3.64,4.98 -3.31,5.98">
        <request index="0"  response="000000000000" foes="000100010000" cont="0"/>
        <request index="1"  response="100000100000" foes="111100110000" cont="0"/>
        <request index="2"  response="100111100000" foes="110111110000" cont="1"/>
        <request index="3"  response="000010000000" foes="100010000000" cont="0"/>
        <request index="4"  response="000110000111" foes="100110000111" cont="0"/>
        <request index="5"  response="011110000110" foes="111110000110" cont="1"/>
        <request index="6"  response="000000000000" foes="010000000100" cont="0"/>
        <request index="7"  response="100000100000" foes="110000111100" cont="0"/>
        <request index="8"  response="100000100011" foes="110000110111" cont="1"/>
        <request index="9"  response="000000000010" foes="000000100010" cont="0"/>
        <request index="10" response="000111000110" foes="000111100110" cont="0"/>
        <request index="11" response="000110111110" foes="000110111110" cont="1"/>
    </junction>
    <junction id="J1" type="dead_end" x="0.02" y="-108.58" incLanes="L7_0" intLanes="" shape="0.02,-108.58 -3.18,-108.58 0.02,-108.58"/>

    <junction id=":J0_12_0" type="internal" x="-0.96" y="3.20" incLanes=":J0_2_0 L6_0" intLanes=":J0_4_0 :J0_5_0 :J0_6_0 :J0_7_0 :J0_10_0 :J0_11_0"/>
    <junction id=":J0_13_0" type="internal" x="3.20" y="0.96" incLanes=":J0_5_0 L0_0" intLanes=":J0_1_0 :J0_2_0 :J0_7_0 :J0_8_0 :J0_9_0 :J0_10_0"/>
    <junction id=":J0_14_0" type="internal" x="0.96" y="-3.20" incLanes=":J0_8_0 L2_0" intLanes=":J0_0_0 :J0_1_0 :J0_4_0 :J0_5_0 :J0_10_0 :J0_11_0"/>
    <junction id=":J0_15_0" type="internal" x="-3.20" y="-0.96" incLanes=":J0_11_0 L4_0" intLanes=":J0_1_0 :J0_2_0 :J0_3_0 :J0_4_0 :J0_7_0 :J0_8_0"/>

    <connection from="L0" to="L7" fromLane="0" toLane="0" via=":J0_9_0" tl="J1" linkIndex="9" dir="r" state="o"/>
    <connection from="L0" to="L5" fromLane="0" toLane="0" via=":J0_10_0" tl="J1" linkIndex="10" dir="s" state="o"/>
    <connection from="L0" to="L3" fromLane="0" toLane="0" via=":J0_11_0" tl="J1" linkIndex="11" dir="l" state="o"/>
    <connection from="L2" to="L1" fromLane="0" toLane="0" via=":J0_0_0" tl="J1" linkIndex="0" dir="r" state="O"/>
    <connection from="L2" to="L7" fromLane="0" toLane="0" via=":J0_1_0" tl="J1" linkIndex="1" dir="s" state="O"/>
    <connection from="L2" to="L5" fromLane="0" toLane="0" via=":J0_2_0" tl="J1" linkIndex="2" dir="l" state="o"/>
    <connection from="L4" to="L3" fromLane="0" toLane="0" via=":J0_3_0" tl="J1" linkIndex="3" dir="r" state="o"/>
    <connection from="L4" to="L1" fromLane="0" toLane="0" via=":J0_4_0" tl="J1" linkIndex="4" dir="s" state="o"/>
    <connection from="L4" to="L7" fromLane="0" toLane="0" via=":J0_5_0" tl="J1" linkIndex="5" dir="l" state="o"/>
    <connection from="L6" to="L5" fromLane="0" toLane="0" via=":J0_6_0" tl="J1" linkIndex="6" dir="r" state="O"/>
    <connection from="L6" to="L3" fromLane="0" toLane="0" via=":J0_7_0" tl="J1" linkIndex="7" dir="s" state="O"/>
    <connection from="L6" to="L1" fromLane="0" toLane="0" via=":J0_8_0" tl="J1" linkIndex="8" dir="l" state="o"/>

    <connection from=":J0_0" to="L1" fromLane="0" toLane="0" dir="r" state="M"/>
    <connection from=":J0_1" to="L7" fromLane="0" toLane="0" dir="s" state="M"/>
    <connection from=":J0_2" to="L5" fromLane="0" toLane="0" via=":J0_12_0" dir="l" state="m"/>
    <connection from=":J0_12" to="L5" fromLane="0" toLane="0" dir="l" state="M"/>
    <connection from=":J0_3" to="L3" fromLane="0" toLane="0" dir="r" state="M"/>
    <connection from=":J0_4" to="L1" fromLane="0" toLane="0" dir="s" state="M"/>
    <connection from=":J0_5" to="L7" fromLane="0" toLane="0" via=":J0_13_0" dir="l" state="m"/>
    <connection from=":J0_13" to="L7" fromLane="0" toLane="0" dir="l" state="M"/>
    <connection from=":J0_6" to="L5" fromLane="0" toLane="0" dir="r" state="M"/>
    <connection from=":J0_7" to="L3" fromLane="0" toLane="0" dir="s" state="M"/>
    <connection from=":J0_8" to="L1" fromLane="0" toLane="0" via=":J0_14_0" dir="l" state="m"/>
    <connection from=":J0_14" to="L1" fromLane="0" toLane="0" dir="l" state="M"/>
    <connection from=":J0_9" to="L7" fromLane="0" toLane="0" dir="r" state="M"/>
    <connection from=":J0_10" to="L5" fromLane="0" toLane="0" dir="s" state="M"/>
    <connection from=":J0_11" to="L3" fromLane="0" toLane="0" via=":J0_15_0" dir="l" state="m"/>
    <connection from=":J0_15" to="L3" fromLane="0" toLane="0" dir="l" state="M"/>

</net>
